@<TRIPOS>MOLECULE
L94
 60 60 0 0 0
SMALL
GASTEIGER

@<TRIPOS>ATOM
      1 C          -1.3500   -1.3610    0.3180 C.ar    1  LIG1        0.0610
      2 C          -0.6710   -2.5690    0.1560 C.ar    1  LIG1       -0.0462
      3 C           0.6710   -2.5680   -0.1580 C.ar    1  LIG1       -0.0462
      4 C           1.3500   -1.3590   -0.3140 C.ar    1  LIG1        0.0610
      5 C           0.6700   -0.1520   -0.1530 C.ar    1  LIG1       -0.0462
      6 C          -0.6710   -0.1530    0.1620 C.ar    1  LIG1       -0.0462
      7 C          -2.7940   -1.3620    0.6490 C.2     1  LIG1        0.2682
      8 N          -3.3320   -2.3990    1.3800 N.pl3   1  LIG1       -0.2496
      9 N           3.3280   -2.3900   -1.3900 N.pl3   1  LIG1       -0.2496
     10 C           2.7920   -1.3580   -0.6510 C.2     1  LIG1        0.2682
     11 N          -3.5540   -0.3840    0.2500 N.2     1  LIG1       -0.2751
     12 N           3.5540   -0.3820   -0.2480 N.2     1  LIG1       -0.2751
     13 C          -4.9820   -0.3840    0.5780 C.3     1  LIG1        0.0892
     14 C           4.9810   -0.3810   -0.5810 C.3     1  LIG1        0.0892
     15 C          -5.6400    0.8680   -0.0050 C.3     1  LIG1        0.0250
     16 C           5.6410    0.8670    0.0080 C.3     1  LIG1        0.0250
     17 C          -7.1310    0.8670    0.3370 C.3     1  LIG1       -0.0288
     18 C           7.1310    0.8680   -0.3400 C.3     1  LIG1       -0.0288
     19 N          -7.7630    2.0690   -0.2220 N.4     1  LIG1        0.2310
     20 N           7.7640    2.0670    0.2250 N.4     1  LIG1        0.2310
     21 C          -7.7010    2.0170   -1.6890 C.3     1  LIG1       -0.0433
     22 C           7.7070    2.0060    1.6920 C.3     1  LIG1       -0.0433
     23 C          -9.1660    2.1300    0.2060 C.3     1  LIG1       -0.0433
     24 C           9.1670    2.1300   -0.2080 C.3     1  LIG1       -0.0433
     25 H          -1.1960   -3.5050    0.2770 H       1  LIG1        0.0626
     26 H           1.1970   -3.5030   -0.2820 H       1  LIG1        0.0626
     27 H           1.1960    0.7840   -0.2740 H       1  LIG1        0.0626
     28 H          -1.1970    0.7820    0.2870 H       1  LIG1        0.0626
     29 H          -2.7660   -3.1280    1.6770 H       1  LIG1        0.2883
     30 H           2.7600   -3.1180   -1.6900 H       1  LIG1        0.2883
     31 H          -4.2780   -2.4000    1.5970 H       1  LIG1        0.2883
     32 H           4.2720   -2.3900   -1.6100 H       1  LIG1        0.2883
     33 H          -3.1750    0.3460   -0.2640 H       1  LIG1        0.3038
     34 H           3.1770    0.3440    0.2730 H       1  LIG1        0.3038
     35 H          -5.4510   -1.2720    0.1540 H       1  LIG1        0.0746
     36 H           5.4510   -1.2720   -0.1640 H       1  LIG1        0.0746
     37 H          -5.1060   -0.3900    1.6610 H       1  LIG1        0.0746
     38 H           5.1010   -0.3790   -1.6640 H       1  LIG1        0.0746
     39 H          -5.1700    1.7560    0.4190 H       1  LIG1        0.0355
     40 H           5.1700    1.7580   -0.4080 H       1  LIG1        0.0355
     41 H          -5.5160    0.8730   -1.0880 H       1  LIG1        0.0355
     42 H           5.5200    0.8650    1.0910 H       1  LIG1        0.0355
     43 H          -7.6010   -0.0210   -0.0870 H       1  LIG1        0.0815
     44 H           7.6010   -0.0220    0.0770 H       1  LIG1        0.0815
     45 H          -7.2550    0.8620    1.4200 H       1  LIG1        0.0815
     46 H           7.2510    0.8700   -1.4230 H       1  LIG1        0.0815
     47 H          -7.2750    2.8890    0.1060 H       1  LIG1        0.2028
     48 H           7.2760    2.8890   -0.0960 H       1  LIG1        0.2028
     49 H          -8.2270    1.1320   -2.0440 H       1  LIG1        0.0777
     50 H           8.1780    2.8950    2.1110 H       1  LIG1        0.0777
     51 H          -8.1690    2.9090   -2.1040 H       1  LIG1        0.0777
     52 H           6.6670    1.9590    2.0140 H       1  LIG1        0.0777
     53 H          -6.6590    1.9730   -2.0070 H       1  LIG1        0.0777
     54 H           8.2360    1.1170    2.0390 H       1  LIG1        0.0777
     55 H          -9.2120    2.1680    1.2950 H       1  LIG1        0.0777
     56 H           9.2090    2.1750   -1.2960 H       1  LIG1        0.0777
     57 H          -9.6350    3.0220   -0.2090 H       1  LIG1        0.0777
     58 H           9.6370    3.0200    0.2110 H       1  LIG1        0.0777
     59 H          -9.6930    1.2440   -0.1480 H       1  LIG1        0.0777
     60 H           9.6940    1.2420    0.1390 H       1  LIG1        0.0777
@<TRIPOS>BOND
     1     1     2   ar
     2     1     6   ar
     3     1     7    1
     4     2     3   ar
     5     2    25    1
     6     3     4   ar
     7     3    26    1
     8     4     5   ar
     9     4    10    1
    10     5     6   ar
    11     5    27    1
    12     6    28    1
    13     7     8    1
    14     7    11    2
    15     8    29    1
    16     8    31    1
    17     9    10    1
    18     9    30    1
    19     9    32    1
    20    10    12    2
    21    11    13    1
    22    11    33    1
    23    12    14    1
    24    12    34    1
    25    13    15    1
    26    13    35    1
    27    13    37    1
    28    14    16    1
    29    14    36    1
    30    14    38    1
    31    15    17    1
    32    15    39    1
    33    15    41    1
    34    16    18    1
    35    16    40    1
    36    16    42    1
    37    17    19    1
    38    17    43    1
    39    17    45    1
    40    18    20    1
    41    18    44    1
    42    18    46    1
    43    19    21    1
    44    19    23    1
    45    19    47    1
    46    20    22    1
    47    20    24    1
    48    20    48    1
    49    21    49    1
    50    21    51    1
    51    21    53    1
    52    22    50    1
    53    22    52    1
    54    22    54    1
    55    23    55    1
    56    23    57    1
    57    23    59    1
    58    24    56    1
    59    24    58    1
    60    24    60    1
