@<TRIPOS>MOLECULE
default_name
 1096  1182    34     0     1 
SMALL
USER_CHARGES
@<TRIPOS>ATOM
  1 P     -17.418000   46.799000  134.831000 P     1 RG      1.1662 ****
  2 O1P   -16.751000   45.682000  134.118000 O2    1 RG     -0.7760 ****
  3 O2P   -18.246000   47.777000  134.072000 O2    1 RG     -0.7760 ****
  4 O5'   -18.338000   46.199000  135.986000 OS    1 RG     -0.4989 ****
  5 C5'   -19.577000   45.583000  135.679000 CI    1 RG      0.0558 ****
  6 H5'1  -19.475668   44.970155  134.783315 H1    1 RG      0.0679 ****
  7 H5'2  -20.330715   46.350188  135.501698 H1    1 RG      0.0679 ****
  8 C4'   -20.015000   44.713000  136.827000 CT    1 RG      0.1065 ****
  9 H4'   -19.310675   43.896669  136.987093 H1    1 RG      0.1174 ****
 10 O4'   -19.947000   45.497000  138.048000 OS    1 RG     -0.3548 ****
 11 C1'   -21.105000   45.254000  138.836000 CT    1 RG      0.0191 ****
 12 H1'   -20.820779   45.197277  139.886762 H2    1 RG      0.2006 ****
 13 N9    -21.932000   46.450000  138.767000 N*    1 RG      0.0492 ****
 14 C8    -21.735000   47.541000  137.955000 CK    1 RG      0.1374 ****
 15 H8    -20.891792   47.588293  137.281825 H5    1 RG      0.1640 ****
 16 N7    -22.650000   48.457000  138.102000 NB    1 RG     -0.5709 ****
 17 C5    -23.499000   47.939000  139.071000 CB    1 RG      0.1744 ****
 18 C6    -24.667000   48.485000  139.644000 C     1 RG      0.4770 ****
 19 O6    -25.203000   49.563000  139.401000 O     1 RG     -0.5597 ****
 20 N1    -25.221000   47.632000  140.591000 NA    1 RG     -0.4787 ****
 21 H1    -26.054811   47.933725  141.053299 H     1 RG      0.3424 ****
 22 C2    -24.714000   46.406000  140.940000 CA    1 RG      0.7657 ****
 23 N2    -25.403000   45.731000  141.874000 N2    1 RG     -0.9672 ****
 24 H21   -26.240778   46.034809  142.349320 H     1 RG      0.4364 ****
 25 H22   -25.033416   44.830847  142.144614 H     1 RG      0.4364 ****
 26 N3    -23.617000   45.883000  140.411000 NC    1 RG     -0.6323 ****
 27 C4    -23.066000   46.701000  139.491000 CB    1 RG      0.1222 ****
 28 C3'   -21.461000   44.238000  136.747000 CT    1 RG      0.2022 ****
 29 H3'   -22.355964   44.470727  136.169958 H1    1 RG      0.0615 ****
 30 C2'   -21.834000   44.062000  138.214000 CT    1 RG      0.0670 ****
 31 H2'1  -22.919705   44.134962  138.277415 H1    1 RG      0.0972 ****
 32 O2'   -21.410000   42.837000  138.783000 OH    1 RG     -0.6139 ****
 33 HO'2  -21.697635   42.838499  139.698895 HO    1 RG      0.4186 ****
 34 O3'   -21.619000   43.046000  135.981000 OS    1 RG     -0.5246 ****
 35 P     -22.922000   42.871000  135.051000 P     2 RA      1.1662 ****
 36 O1P   -22.964000   41.453000  134.601000 O2    2 RA     -0.7760 ****
 37 O2P   -22.927000   43.965000  134.044000 O2    2 RA     -0.7760 ****
 38 O5'   -24.142000   43.076000  136.055000 OS    2 RA     -0.4989 ****
 39 C5'   -24.550000   42.015000  136.910000 CI    2 RA      0.0558 ****
 40 H5'1  -23.819160   41.888408  137.708716 H1    2 RA      0.0679 ****
 41 H5'2  -24.615982   41.090429  136.336489 H1    2 RA      0.0679 ****
 42 C4'   -25.899000   42.313000  137.515000 CT    2 RA      0.1065 ****
 43 H4'   -26.164644   41.504126  138.195629 H1    2 RA      0.1174 ****
 44 O4'   -25.783000   43.483000  138.368000 OS    2 RA     -0.3548 ****
 45 C1'   -26.987000   44.233000  138.313000 CT    2 RA      0.0394 ****
 46 H1'   -27.326228   44.534086  139.304147 H2    2 RA      0.2007 ****
 47 N9    -26.697000   45.509000  137.663000 N*    2 RA     -0.0251 ****
 48 C8    -25.756000   45.784000  136.699000 C2    2 RA      0.2006 ****
 49 H8    -25.128192   44.994861  136.312327 H5    2 RA      0.1553 ****
 50 N7    -25.766000   47.029000  136.292000 NB    2 RA     -0.6073 ****
 51 C5    -26.775000   47.616000  137.043000 CB    2 RA      0.0515 ****
 52 C6    -27.286000   48.924000  137.086000 CA    2 RA      0.7009 ****
 53 N6    -26.824000   49.926000  136.334000 N2    2 RA     -0.9019 ****
 54 H61   -27.234095   50.845785  136.410924 H     2 RA      0.4115 ****
 55 H62   -26.064447   49.764129  135.688263 H     2 RA      0.4115 ****
 56 N1    -28.302000   49.174000  137.942000 NC    2 RA     -0.7615 ****
 57 C2    -28.762000   48.172000  138.703000 CQ    2 RA      0.5875 ****
 58 H2    -29.575109   48.348124  139.391647 H5    2 RA      0.0473 ****
 59 N3    -28.360000   46.906000  138.760000 NC    2 RA     -0.6997 ****
 60 C4    -27.354000   46.691000  137.894000 CB    2 RA      0.3053 ****
 61 C3'   -27.020000   42.683000  136.552000 CT    2 RA      0.2022 ****
 62 H3'   -27.133841   43.065652  135.537743 H1    2 RA      0.0615 ****
 63 C2'   -27.975000   43.417000  137.481000 CT    2 RA      0.0670 ****
 64 H2'1  -28.657410   44.000666  136.863141 H1    2 RA      0.0972 ****
 65 O2'   -28.720000   42.542000  138.309000 OH    2 RA     -0.6139 ****
 66 HO'2  -29.289338   43.089095  138.855023 HO    2 RA      0.4186 ****
 67 O3'   -27.650000   41.552000  135.954000 OS    2 RA     -0.5246 ****
 68 P     -28.226000   41.664000  134.453000 P     3 RG      1.1662 ****
 69 O1P   -29.362000   40.714000  134.326000 O2    3 RG     -0.7760 ****
 70 O2P   -27.090000   41.589000  133.496000 O2    3 RG     -0.7760 ****
 71 O5'   -28.816000   43.134000  134.367000 OS    3 RG     -0.4989 ****
 72 C5'   -30.100000   43.355000  133.826000 CI    3 RG      0.0558 ****
 73 H5'1  -30.333610   42.554106  133.124505 H1    3 RG      0.0679 ****
 74 H5'2  -30.118502   44.317180  133.314173 H1    3 RG      0.0679 ****
 75 C4'   -31.120000   43.358000  134.930000 CT    3 RG      0.1065 ****
 76 H4'   -31.324225   42.345648  135.278621 H1    3 RG      0.1174 ****
 77 O4'   -30.569000   44.037000  136.088000 OS    3 RG     -0.3548 ****
 78 C1'   -31.428000   45.090000  136.477000 CT    3 RG      0.0191 ****
 79 H1'   -31.383145   45.231857  137.556798 H2    3 RG      0.2006 ****
 80 N9    -30.839000   46.320000  135.941000 N*    3 RG      0.0492 ****
 81 C8    -29.694000   46.400000  135.177000 CK    3 RG      0.1374 ****
 82 H8    -29.137668   45.509106  134.925599 H5    3 RG      0.1640 ****
 83 N7    -29.391000   47.619000  134.823000 NB    3 RG     -0.5709 ****
 84 C5    -30.393000   48.400000  135.384000 CB    3 RG      0.1744 ****
 85 C6    -30.598000   49.800000  135.329000 C     3 RG      0.4770 ****
 86 O6    -29.909000   50.657000  134.763000 O     3 RG     -0.5597 ****
 87 N1    -31.744000   50.176000  136.023000 NA    3 RG     -0.4787 ****
 88 H1    -31.975379   51.148779  136.035811 H     3 RG      0.3424 ****
 89 C2    -32.586000   49.317000  136.687000 CA    3 RG      0.7657 ****
 90 N2    -33.651000   49.877000  137.283000 N2    3 RG     -0.9672 ****
 91 H21   -33.889855   50.858131  137.303755 H     3 RG      0.4364 ****
 92 H22   -34.269713   49.252636  137.780457 H     3 RG      0.4364 ****
 93 N3    -32.402000   48.006000  136.757000 NC    3 RG     -0.6323 ****
 94 C4    -31.295000   47.617000  136.083000 CB    3 RG      0.1222 ****
 95 C3'   -32.387000   44.107000  134.565000 CT    3 RG      0.2022 ****
 96 H3'   -32.741617   44.740208  133.751738 H1    3 RG      0.0615 ****
 97 C2'   -32.800000   44.717000  135.902000 CT    3 RG      0.0670 ****
 98 H2'1  -33.470051   45.550013  135.689348 H1    3 RG      0.0972 ****
 99 O2'   -33.448000   43.799000  136.763000 OH    3 RG     -0.6139 ****
100 HO'2  -33.665154   44.274607  137.568135 HO    3 RG      0.4186 ****
101 O3'   -33.334000   43.224000  133.962000 OS    3 RG     -0.5246 ****
102 P     -33.680000   43.375000  132.393000 P     4 RC      1.1662 ****
103 O1P   -34.344000   42.123000  131.943000 O2    4 RC     -0.7760 ****
104 O2P   -32.470000   43.864000  131.675000 O2    4 RC     -0.7760 ****
105 O5'   -34.772000   44.529000  132.375000 OS    4 RC     -0.4989 ****
106 C5'   -35.752000   44.605000  133.401000 CI    4 RC      0.0558 ****
107 H5'1  -35.438707   44.074320  134.300070 H1    4 RC      0.0679 ****
108 H5'2  -36.675396   44.138744  133.057422 H1    4 RC      0.0679 ****
109 C4'   -36.021000   46.045000  133.745000 CT    4 RC      0.1065 ****
110 H4'   -36.789428   46.129495  134.513427 H1    4 RC      0.1174 ****
111 O4'   -34.834000   46.628000  134.351000 OS    4 RC     -0.3548 ****
112 C1'   -34.728000   48.002000  133.978000 CT    4 RC      0.0066 ****
113 H1'   -34.594318   48.603841  134.876897 H2    4 RC      0.2029 ****
114 N1    -33.468000   48.205000  133.231000 N*    4 RC     -0.0484 ****
115 C6    -32.791000   47.149000  132.684000 C1    4 RC      0.0053 ****
116 H6    -33.185020   46.148318  132.782915 H4    4 RC      0.1958 ****
117 C5    -31.637000   47.332000  132.021000 C1    4 RC     -0.5215 ****
118 H5    -31.120412   46.470197  131.598470 HA    4 RC      0.1928 ****
119 C4    -31.147000   48.667000  131.907000 CA    4 RC      0.8185 ****
120 N4    -29.994000   48.906000  131.270000 N2    4 RC     -0.9530 ****
121 H41   -29.679089   49.863939  131.212701 H     4 RC      0.4234 ****
122 H42   -29.468290   48.144221  130.865745 H     4 RC      0.4234 ****
123 N3    -31.806000   49.708000  132.425000 NC    4 RC     -0.7584 ****
124 C2    -32.970000   49.509000  133.093000 C     4 RC      0.7538 ****
125 O2    -33.610000   50.451000  133.588000 O     4 RC     -0.6252 ****
126 C3'   -36.255000   46.946000  132.547000 CT    4 RC      0.2022 ****
127 H3'   -35.992047   46.942373  131.489199 H1    4 RC      0.0615 ****
128 C2'   -35.963000   48.319000  133.138000 CT    4 RC      0.0670 ****
129 H2'1  -35.821758   49.009164  132.306240 H1    4 RC      0.0972 ****
130 O2'   -36.993000   48.803000  133.983000 OH    4 RC     -0.6139 ****
131 HO'2  -36.713930   49.665018  134.300246 HO    4 RC      0.4186 ****
132 O3'   -37.562000   46.821000  132.000000 OS    4 RC     -0.5246 ****
133 P     -37.765000   46.952000  130.408000 P     5 RC      1.1662 ****
134 O1P   -39.097000   46.366000  130.112000 O2    5 RC     -0.7760 ****
135 O2P   -36.553000   46.424000  129.716000 O2    5 RC     -0.7760 ****
136 O5'   -37.837000   48.525000  130.162000 OS    5 RC     -0.4989 ****
137 C5'   -38.763000   49.330000  130.885000 CI    5 RC      0.0558 ****
138 H5'1  -38.732730   49.081792  131.945932 H1    5 RC      0.0679 ****
139 H5'2  -39.771631   49.145608  130.515185 H1    5 RC      0.0679 ****
140 C4'   -38.432000   50.790000  130.708000 CT    5 RC      0.1065 ****
141 H4'   -39.110554   51.403900  131.300276 H1    5 RC      0.1174 ****
142 O4'   -37.118000   51.058000  131.266000 OS    5 RC     -0.3548 ****
143 C1'   -36.465000   52.057000  130.497000 CT    5 RC      0.0066 ****
144 H1'   -36.105024   52.849949  131.152552 H2    5 RC      0.2029 ****
145 N1    -35.232000   51.480000  129.940000 N*    5 RC     -0.0484 ****
146 C6    -35.116000   50.132000  129.735000 C1    5 RC      0.0053 ****
147 H6    -35.934744   49.476089  129.991591 H4    5 RC      0.1958 ****
148 C5    -33.998000   49.604000  129.218000 C1    5 RC     -0.5215 ****
149 H5    -33.934639   48.526500  129.066084 HA    5 RC      0.1928 ****
150 C4    -32.937000   50.501000  128.891000 CA    5 RC      0.8185 ****
151 N4    -31.800000   50.032000  128.368000 N2    5 RC     -0.9530 ****
152 H41   -31.073094   50.698689  128.150668 H     5 RC      0.4234 ****
153 H42   -31.686342   49.042313  128.201561 H     5 RC      0.4234 ****
154 N3    -33.038000   51.819000  129.092000 NC    5 RC     -0.7584 ****
155 C2    -34.175000   52.339000  129.613000 C     5 RC      0.7538 ****
156 O2    -34.311000   53.561000  129.807000 O     5 RC     -0.6252 ****
157 C3'   -38.308000   51.251000  129.268000 CT    5 RC      0.2022 ****
158 H3'   -38.157914   50.820629  128.277871 H1    5 RC      0.0615 ****
159 C2'   -37.449000   52.501000  129.414000 CT    5 RC      0.0670 ****
160 H2'1  -37.010848   52.709232  128.437905 H1    5 RC      0.0972 ****
161 O2'   -38.165000   53.637000  129.861000 OH    5 RC     -0.6139 ****
162 HO'2  -37.536492   54.360422  129.917905 HO    5 RC      0.4186 ****
163 O3'   -39.588000   51.515000  128.709000 OS    5 RC     -0.5246 ****
164 P     -39.895000   51.087000  127.190000 P     6 RG      1.1662 ****
165 O1P   -41.234000   50.432000  127.185000 O2    6 RG     -0.7760 ****
166 O2P   -38.717000   50.367000  126.622000 O2    6 RG     -0.7760 ****
167 O5'   -40.011000   52.481000  126.442000 OS    6 RG     -0.4989 ****
168 C5'   -39.033000   52.876000  125.501000 CI    6 RG      0.0558 ****
169 H5'1  -39.469712   53.003658  124.510502 H1    6 RG      0.0679 ****
170 H5'2  -38.263825   52.106863  125.431011 H1    6 RG      0.0679 ****
171 C4'   -38.404000   54.168000  125.933000 CT    6 RG      0.1065 ****
172 H4'   -39.123102   54.812404  126.438704 H1    6 RG      0.1174 ****
173 O4'   -37.380000   53.912000  126.931000 OS    6 RG     -0.3548 ****
174 C1'   -36.287000   54.804000  126.736000 CT    6 RG      0.0191 ****
175 H1'   -36.019848   55.245763  127.695987 H2    6 RG      0.2006 ****
176 N9    -35.115000   54.008000  126.384000 N*    6 RG      0.0492 ****
177 C8    -34.971000   52.645000  126.503000 CK    6 RG      0.1374 ****
178 H8    -35.764157   52.038618  126.914830 H5    6 RG      0.1640 ****
179 N7    -33.814000   52.211000  126.078000 NB    6 RG     -0.5709 ****
180 C5    -33.153000   53.356000  125.656000 CB    6 RG      0.1744 ****
181 C6    -31.870000   53.511000  125.085000 C     6 RG      0.4770 ****
182 O6    -31.036000   52.641000  124.826000 O     6 RG     -0.5597 ****
183 N1    -31.594000   54.845000  124.802000 NA    6 RG     -0.4787 ****
184 H1    -30.703956   55.056627  124.398224 H     6 RG      0.3424 ****
185 C2    -32.447000   55.895000  125.037000 CA    6 RG      0.7657 ****
186 N2    -31.997000   57.110000  124.703000 N2    6 RG     -0.9672 ****
187 H21   -31.095372   57.336987  124.308482 H     6 RG      0.4364 ****
188 H22   -32.617977   57.886098  124.882329 H     6 RG      0.4364 ****
189 N3    -33.651000   55.764000  125.564000 NC    6 RG     -0.6323 ****
190 C4    -33.938000   54.475000  125.847000 CB    6 RG      0.1222 ****
191 C3'   -37.651000   54.866000  124.826000 CT    6 RG      0.2022 ****
192 H3'   -37.245688   54.679011  123.831587 H1    6 RG      0.0615 ****
193 C2'   -36.692000   55.754000  125.606000 CT    6 RG      0.0670 ****
194 H2'1  -35.888129   56.039838  124.927629 H1    6 RG      0.0972 ****
195 O2'   -37.299000   56.919000  126.135000 OH    6 RG     -0.6139 ****
196 HO'2  -36.615367   57.403766  126.603239 HO    6 RG      0.4186 ****
197 O3'   -38.588000   55.573000  124.042000 OS    6 RG     -0.5246 ****
198 P     -39.062000   54.956000  122.646000 P     7 RU      1.1662 ****
199 O1P   -40.452000   55.412000  122.451000 O2    7 RU     -0.7760 ****
200 O2P   -38.753000   53.505000  122.591000 O2    7 RU     -0.7760 ****
201 O5'   -38.140000   55.721000  121.608000 OS    7 RU     -0.4989 ****
202 C5'   -38.095000   57.139000  121.613000 CI    7 RU      0.0558 ****
203 H5'1  -38.229631   57.529273  122.621792 H1    7 RU      0.0679 ****
204 H5'2  -38.900947   57.530800  120.992482 H1    7 RU      0.0679 ****
205 C4'   -36.778000   57.619000  121.069000 CT    7 RU      0.1065 ****
206 H4'   -36.790142   58.705125  120.977983 H1    7 RU      0.1174 ****
207 O4'   -35.711000   57.345000  122.017000 OS    7 RU     -0.3548 ****
208 C1'   -34.491000   57.162000  121.310000 CT    7 RU      0.0674 ****
209 H1'   -33.720063   57.842399  121.671682 H2    7 RU      0.1824 ****
210 N1    -33.943000   55.837000  121.637000 N*    7 RU      0.0418 ****
211 C6    -34.680000   54.887000  122.292000 CM    7 RU     -0.1126 ****
212 H6    -35.697566   55.119616  122.569217 H4    7 RU      0.2188 ****
213 C5    -34.206000   53.666000  122.555000 CM    7 RU     -0.3635 ****
214 H5    -34.821973   52.923226  123.061917 HA    7 RU      0.1811 ****
215 C4    -32.880000   53.315000  122.151000 C     7 RU      0.5952 ****
216 O4    -32.341000   52.221000  122.306000 O     7 RU     -0.5761 ****
217 N3    -32.192000   54.315000  121.522000 NA    7 RU     -0.3549 ****
218 H3    -31.173797   54.080480  121.211577 H     7 RU      0.3154 ****
219 C2    -32.649000   55.577000  121.239000 C     7 RU      0.4687 ****
220 O2    -31.957000   56.404000  120.673000 O     7 RU     -0.5477 ****
221 C3'   -36.295000   56.908000  119.823000 CT    7 RU      0.2022 ****
222 H3'   -36.427292   55.946773  119.326369 H1    7 RU      0.0615 ****
223 C2'   -34.821000   57.282000  119.819000 CT    7 RU      0.0670 ****
224 H2'1  -34.298956   56.577480  119.171527 H1    7 RU      0.0972 ****
225 O2'   -34.593000   58.602000  119.360000 OH    7 RU     -0.6139 ****
226 HO'2  -33.645002   58.750122  119.390989 HO    7 RU      0.4186 ****
227 O3'   -36.970000   57.334000  118.656000 OS    7 RU     -0.5246 ****
228 P     -37.170000   56.298000  117.446000 P     8 RA      1.1662 ****
229 O1P   -38.139000   56.931000  116.519000 O2    8 RA     -0.7760 ****
230 O2P   -37.464000   54.952000  118.005000 O2    8 RA     -0.7760 ****
231 O5'   -35.735000   56.263000  116.744000 OS    8 RA     -0.4989 ****
232 C5'   -35.135000   57.460000  116.247000 CI    8 RA      0.0558 ****
233 H5'1  -35.189930   58.223518  117.022966 H1    8 RA      0.0679 ****
234 H5'2  -35.669886   57.792937  115.357534 H1    8 RA      0.0679 ****
235 C4'   -33.685000   57.223000  115.884000 CT    8 RA      0.1065 ****
236 H4'   -33.275189   58.163038  115.514562 H1    8 RA      0.1174 ****
237 O4'   -32.919000   56.939000  117.084000 OS    8 RA     -0.3548 ****
238 C1'   -31.860000   56.046000  116.770000 CT    8 RA      0.0394 ****
239 H1'   -30.884496   56.409657  117.092869 H2    8 RA      0.2007 ****
240 N9    -32.034000   54.824000  117.559000 N*    8 RA     -0.0251 ****
241 C8    -33.138000   54.453000  118.285000 C2    8 RA      0.2006 ****
242 H8    -34.025083   55.068889  118.272167 H5    8 RA      0.1553 ****
243 N7    -33.008000   53.302000  118.899000 NB    8 RA     -0.6073 ****
244 C5    -31.734000   52.884000  118.554000 CB    8 RA      0.0515 ****
245 C6    -31.006000   51.736000  118.880000 CA    8 RA      0.7009 ****
246 N6    -31.479000   50.764000  119.659000 N2    8 RA     -0.9019 ****
247 H61   -30.907835   49.955959  119.861338 H     8 RA      0.4115 ****
248 H62   -32.408707   50.835248  120.047160 H     8 RA      0.4115 ****
249 N1    -29.762000   51.616000  118.372000 NC    8 RA     -0.7615 ****
250 C2    -29.297000   52.593000  117.586000 CQ    8 RA      0.5875 ****
251 H2    -28.303707   52.519175  117.168486 H5    8 RA      0.0473 ****
252 N3    -29.889000   53.721000  117.202000 NC    8 RA     -0.6997 ****
253 C4    -31.121000   53.809000  117.728000 CB    8 RA      0.3053 ****
254 C3'   -33.388000   56.042000  114.974000 CT    8 RA      0.2022 ****
255 H3'   -33.852806   55.108735  114.656081 H1    8 RA      0.0615 ****
256 C2'   -31.915000   55.802000  115.262000 CT    8 RA      0.0670 ****
257 H2'1  -31.659323   54.794594  114.933575 H1    8 RA      0.0972 ****
258 O2'   -31.094000   56.738000  114.592000 OH    8 RA     -0.6139 ****
259 HO'2  -30.185271   56.527035  114.818508 HO    8 RA      0.4186 ****
260 O3'   -33.575000   56.371000  113.604000 OS    8 RA     -0.5246 ****
261 P     -33.711000   55.194000  112.514000 P     9 RU      1.1662 ****
262 O1P   -33.702000   55.816000  111.163000 O2    9 RU     -0.7760 ****
263 O2P   -34.822000   54.286000  112.901000 O2    9 RU     -0.7760 ****
264 O5'   -32.361000   54.369000  112.662000 OS    9 RU     -0.4989 ****
265 C5'   -31.129000   54.883000  112.174000 CI    9 RU      0.0558 ****
266 H5'1  -30.867399   55.819793  112.666019 H1    9 RU      0.0679 ****
267 H5'2  -31.214717   55.080024  111.105387 H1    9 RU      0.0679 ****
268 C4'   -30.037000   53.879000  112.411000 CT    9 RU      0.1065 ****
269 H4'   -29.063492   54.282199  112.132051 H1    9 RU      0.1174 ****
270 O4'   -29.937000   53.643000  113.839000 OS    9 RU     -0.3548 ****
271 C1'   -29.564000   52.299000  114.072000 CT    9 RU      0.0674 ****
272 H1'   -28.675458   52.236700  114.700261 H2    9 RU      0.1824 ****
273 N1    -30.596000   51.658000  114.895000 N*    9 RU      0.0418 ****
274 C6    -31.822000   52.230000  115.090000 CM    9 RU     -0.1126 ****
275 H6    -32.034788   53.174561  114.611538 H4    9 RU      0.2188 ****
276 C5    -32.784000   51.642000  115.806000 CM    9 RU     -0.3635 ****
277 H5    -33.757823   52.115251  115.931705 HA    9 RU      0.1811 ****
278 C4    -32.548000   50.368000  116.399000 C     9 RU      0.5952 ****
279 O4    -33.359000   49.714000  117.051000 O     9 RU     -0.5761 ****
280 N3    -31.295000   49.859000  116.178000 NA    9 RU     -0.3549 ****
281 H3    -31.080892   48.890706  116.630399 H     9 RU      0.3154 ****
282 C2    -30.285000   50.440000  115.456000 C     9 RU      0.4687 ****
283 O2    -29.188000   49.917000  115.326000 O     9 RU     -0.5477 ****
284 C3'   -30.301000   52.497000  111.840000 CT    9 RU      0.2022 ****
285 H3'   -31.142045   51.908589  111.473236 H1    9 RU      0.0615 ****
286 C2'   -29.411000   51.622000  112.710000 CT    9 RU      0.0670 ****
287 H2'1  -29.785613   50.600529  112.643954 H1    9 RU      0.0972 ****
288 O2'   -28.054000   51.651000  112.321000 OH    9 RU     -0.6139 ****
289 HO'2  -27.577178   51.074542  112.922611 HO    9 RU      0.4186 ****
290 O3'   -29.919000   52.421000  110.476000 OS    9 RU     -0.5246 ****
291 P     -30.171000   51.064000  109.659000 P    10 RG      1.1662 ****
292 O1P   -30.035000   51.336000  108.216000 O2   10 RG     -0.7760 ****
293 O2P   -31.417000   50.453000  110.183000 O2   10 RG     -0.7760 ****
294 O5'   -28.965000   50.120000  110.075000 OS   10 RG     -0.4989 ****
295 C5'   -27.642000   50.399000  109.648000 CI   10 RG      0.0558 ****
296 H5'1  -27.177685   51.182100  110.247388 H1   10 RG      0.0679 ****
297 H5'2  -27.658793   50.747166  108.615238 H1   10 RG      0.0679 ****
298 C4'   -26.816000   49.150000  109.743000 CT   10 RG      0.1065 ****
299 H4'   -25.808624   49.284988  109.349208 H1   10 RG      0.1174 ****
300 O4'   -26.618000   48.797000  111.131000 OS   10 RG     -0.3548 ****
301 C1'   -26.641000   47.393000  111.273000 CT   10 RG      0.0191 ****
302 H1'   -25.735737   47.048004  111.772576 H2   10 RG      0.2006 ****
303 N9    -27.700000   47.059000  112.211000 N*   10 RG      0.0492 ****
304 C8    -28.729000   47.868000  112.600000 CK   10 RG      0.1374 ****
305 H8    -28.834250   48.866020  112.200903 H5   10 RG      0.1640 ****
306 N7    -29.518000   47.304000  113.469000 NB   10 RG     -0.5709 ****
307 C5    -28.974000   46.044000  113.662000 CB   10 RG      0.1744 ****
308 C6    -29.394000   44.977000  114.497000 C    10 RG      0.4770 ****
309 O6    -30.365000   44.927000  115.252000 O    10 RG     -0.5597 ****
310 N1    -28.558000   43.880000  114.387000 NA   10 RG     -0.4787 ****
311 H1    -28.772644   43.077032  114.943031 H    10 RG      0.3424 ****
312 C2    -27.467000   43.807000  113.576000 CA   10 RG      0.7657 ****
313 N2    -26.802000   42.649000  113.602000 N2   10 RG     -0.9672 ****
314 H21   -27.016741   41.837219  114.163247 H    10 RG      0.4364 ****
315 H22   -25.985233   42.584452  113.011386 H    10 RG      0.4364 ****
316 N3    -27.059000   44.793000  112.793000 NC   10 RG     -0.6323 ****
317 C4    -27.855000   45.875000  112.890000 CB   10 RG      0.1222 ****
318 C3'   -27.524000   47.948000  109.172000 CT   10 RG      0.2022 ****
319 H3'   -28.534221   47.657842  108.883275 H1   10 RG      0.0615 ****
320 C2'   -26.854000   46.797000  109.886000 CT   10 RG      0.0670 ****
321 H2'1  -27.492161   45.915830  109.819741 H1   10 RG      0.0972 ****
322 O2'   -25.609000   46.518000  109.298000 OH   10 RG     -0.6139 ****
323 HO'2  -25.226807   45.784163  109.784838 HO   10 RG      0.4186 ****
324 O3'   -27.289000   47.862000  107.794000 OS   10 RG     -0.5246 ****
325 P     -28.288000   47.004000  106.903000 P    11 RC      1.1662 ****
326 O1P   -27.864000   47.140000  105.482000 O2   11 RC     -0.7760 ****
327 O2P   -29.652000   47.425000  107.340000 O2   11 RC     -0.7760 ****
328 O5'   -28.038000   45.509000  107.375000 OS   11 RC     -0.4989 ****
329 C5'   -26.833000   44.860000  107.044000 CI   11 RC      0.0558 ****
330 H5'1  -25.962459   45.456453  107.316950 H1   11 RC      0.0679 ****
331 H5'2  -26.787671   44.704470  105.966106 H1   11 RC      0.0679 ****
332 C4'   -26.758000   43.536000  107.735000 CT   11 RC      0.1065 ****
333 H4'   -25.773561   43.085526  107.608296 H1   11 RC      0.1174 ****
334 O4'   -26.875000   43.755000  109.156000 OS   11 RC     -0.3548 ****
335 C1'   -27.451000   42.613000  109.762000 CT   11 RC      0.0066 ****
336 H1'   -26.770678   42.225387  110.520300 H2   11 RC      0.2029 ****
337 N1    -28.611000   43.048000  110.530000 N*   11 RC     -0.0484 ****
338 C6    -29.088000   44.323000  110.416000 C1   11 RC      0.0053 ****
339 H6    -28.606744   45.018188  109.744058 H4   11 RC      0.1958 ****
340 C5    -30.145000   44.732000  111.123000 C1   11 RC     -0.5215 ****
341 H5    -30.508918   45.752868  111.006846 HA   11 RC      0.1928 ****
342 C4    -30.743000   43.791000  112.002000 CA   11 RC      0.8185 ****
343 N4    -31.797000   44.151000  112.747000 N2   11 RC     -0.9530 ****
344 H41   -32.195159   43.457067  113.363462 H    11 RC      0.4234 ****
345 H42   -32.169303   45.087717  112.683349 H    11 RC      0.4234 ****
346 N3    -30.282000   42.539000  112.118000 NC   11 RC     -0.7584 ****
347 C2    -29.217000   42.142000  111.383000 C    11 RC      0.7538 ****
348 O2    -28.764000   40.989000  111.442000 O    11 RC     -0.6252 ****
349 C3'   -27.900000   42.589000  107.459000 CT   11 RC      0.2022 ****
350 H3'   -28.935061   42.652589  107.123285 H1   11 RC      0.0615 ****
351 C2'   -27.809000   41.641000  108.645000 CT   11 RC      0.0670 ****
352 H2'1  -28.761672   41.115925  108.714374 H1   11 RC      0.0972 ****
353 O2'   -26.764000   40.704000  108.544000 OH   11 RC     -0.6139 ****
354 HO'2  -26.796161   40.161320  109.335242 HO   11 RC      0.4186 ****
355 O3'   -27.720000   41.943000  106.213000 OS   11 RC     -0.5246 ****
356 P     -29.007000   41.476000  105.383000 P    12 RG      1.1662 ****
357 O1P   -28.553000   41.009000  104.044000 O2   12 RG     -0.7760 ****
358 O2P   -30.007000   42.575000  105.480000 O2   12 RG     -0.7760 ****
359 O5'   -29.505000   40.193000  106.193000 OS   12 RG     -0.4989 ****
360 C5'   -28.718000   38.999000  106.175000 CI   12 RG      0.0558 ****
361 H5'1  -27.732705   39.239022  106.574604 H1   12 RG      0.0679 ****
362 H5'2  -28.632307   38.635105  105.151117 H1   12 RG      0.0679 ****
363 C4'   -29.347000   37.911000  107.021000 CT   12 RG      0.1065 ****
364 H4'   -28.687764   37.044869  106.963333 H1   12 RG      0.1174 ****
365 O4'   -29.328000   38.290000  108.423000 OS   12 RG     -0.3548 ****
366 C1'   -30.470000   37.762000  109.078000 CT   12 RG      0.0191 ****
367 H1'   -30.184149   37.295502  110.020745 H2   12 RG      0.2006 ****
368 N9    -31.307000   38.884000  109.488000 N*   12 RG      0.0492 ****
369 C8    -31.198000   40.189000  109.069000 CK   12 RG      0.1374 ****
370 H8    -30.450101   40.477616  108.345296 H5   12 RG      0.1640 ****
371 N7    -32.068000   40.984000  109.633000 NB   12 RG     -0.5709 ****
372 C5    -32.803000   40.152000  110.466000 CB   12 RG      0.1744 ****
373 C6    -33.884000   40.447000  111.336000 C    12 RG      0.4770 ****
374 O6    -34.417000   41.543000  111.558000 O    12 RG     -0.5597 ****
375 N1    -34.340000   39.309000  111.991000 NA   12 RG     -0.4787 ****
376 H1    -35.103129   39.414496  112.628577 H    12 RG      0.3424 ****
377 C2    -33.820000   38.054000  111.834000 CA   12 RG      0.7657 ****
378 N2    -34.391000   37.098000  112.563000 N2   12 RG     -0.9672 ****
379 H21   -35.150846   37.206243  113.219519 H    12 RG      0.4364 ****
380 H22   -34.011279   36.167385  112.463669 H    12 RG      0.4364 ****
381 N3    -32.812000   37.760000  111.027000 NC   12 RG     -0.6323 ****
382 C4    -32.353000   38.850000  110.381000 CB   12 RG      0.1222 ****
383 C3'   -30.806000   37.575000  106.766000 CT   12 RG      0.2022 ****
384 H3'   -31.687937   38.080268  106.372310 H1   12 RG      0.0615 ****
385 C2'   -31.165000   36.864000  108.060000 CT   12 RG      0.0670 ****
386 H2'1  -32.250235   36.785457  108.124783 H1   12 RG      0.0972 ****
387 O2'   -30.596000   35.571000  108.108000 OH   12 RG     -0.6139 ****
388 HO'2  -30.859130   35.179414  108.944076 HO   12 RG      0.4186 ****
389 O3'   -31.008000   36.735000  105.627000 OS   12 RG     -0.5246 ****
390 P     -32.440000   36.743000  104.891000 P    13 RA      1.1662 ****
391 O1P   -32.353000   35.810000  103.741000 O2   13 RA     -0.7760 ****
392 O2P   -32.887000   38.152000  104.675000 O2   13 RA     -0.7760 ****
393 O5'   -33.384000   36.084000  105.978000 OS   13 RA     -0.4989 ****
394 C5'   -33.084000   34.798000  106.471000 CI   13 RA      0.0558 ****
395 H5'1  -32.147435   34.789534  107.028561 H1   13 RA      0.0679 ****
396 H5'2  -32.975978   34.104641  105.636923 H1   13 RA      0.0679 ****
397 C4'   -34.190000   34.336000  107.362000 CT   13 RA      0.1065 ****
398 H4'   -34.034165   33.303884  107.675931 H1   13 RA      0.1174 ****
399 O4'   -34.183000   35.097000  108.598000 OS   13 RA     -0.3548 ****
400 C1'   -35.511000   35.274000  109.052000 CT   13 RA      0.0394 ****
401 H1'   -35.661309   35.005424  110.097645 H2   13 RA      0.2007 ****
402 N9    -35.787000   36.707000  109.038000 N*   13 RA     -0.0251 ****
403 C8    -35.212000   37.666000  108.240000 C2   13 RA      0.2006 ****
404 H8    -34.510264   37.383517  107.469176 H5   13 RA      0.1553 ****
405 N7    -35.649000   38.881000  108.478000 NB   13 RA     -0.6073 ****
406 C5    -36.576000   38.707000  109.496000 CB   13 RA      0.0515 ****
407 C6    -37.386000   39.609000  110.194000 CA   13 RA      0.7009 ****
408 N6    -37.385000   40.918000  109.974000 N2   13 RA     -0.9019 ****
409 H61   -37.992802   41.520660  110.510169 H    13 RA      0.4115 ****
410 H62   -36.776436   41.311372  109.270431 H    13 RA      0.4115 ****
411 N1    -38.206000   39.117000  111.138000 NC   13 RA     -0.7615 ****
412 C2    -38.203000   37.802000  111.361000 CQ   13 RA      0.5875 ****
413 H2    -38.856376   37.384344  112.112707 H5   13 RA      0.0473 ****
414 N3    -37.483000   36.847000  110.776000 NC   13 RA     -0.6997 ****
415 C4    -36.679000   37.373000  109.842000 CB   13 RA      0.3053 ****
416 C3'   -35.571000   34.599000  106.816000 CT   13 RA      0.2022 ****
417 H3'   -36.063099   35.274485  106.116244 H1   13 RA      0.0615 ****
418 C2'   -36.395000   34.494000  108.079000 CT   13 RA      0.0670 ****
419 H2'1  -37.400158   34.871887  107.892026 H1   13 RA      0.0972 ****
420 O2'   -36.468000   33.142000  108.478000 OH   13 RA     -0.6139 ****
421 HO'2  -36.996161   33.113917  109.279160 HO   13 RA      0.4186 ****
422 O3'   -35.939000   33.627000  105.862000 OS   13 RA     -0.5246 ****
423 P     -37.047000   33.997000  104.768000 P    14 RU      1.1662 ****
424 O1P   -37.271000   32.734000  104.015000 O2   14 RU     -0.7760 ****
425 O2P   -36.674000   35.241000  104.025000 O2   14 RU     -0.7760 ****
426 O5'   -38.326000   34.329000  105.669000 OS   14 RU     -0.4989 ****
427 C5'   -38.931000   33.319000  106.477000 CI   14 RU      0.0558 ****
428 H5'1  -38.206830   32.950123  107.203366 H1   14 RU      0.0679 ****
429 H5'2  -39.252754   32.491488  105.844704 H1   14 RU      0.0679 ****
430 C4'   -40.134000   33.870000  107.210000 CT   14 RU      0.1065 ****
431 H4'   -40.627086   33.052677  107.736260 H1   14 RU      0.1174 ****
432 O4'   -39.706000   34.773000  108.261000 OS   14 RU     -0.3548 ****
433 C1'   -40.674000   35.791000  108.439000 CT   14 RU      0.0674 ****
434 H1'   -40.903666   35.922165  109.496426 H2   14 RU      0.1824 ****
435 N1    -40.059000   37.067000  108.075000 N*   14 RU      0.0418 ****
436 C6    -38.985000   37.125000  107.231000 CM   14 RU     -0.1126 ****
437 H6    -38.569659   36.201292  106.855960 H4   14 RU      0.2188 ****
438 C5    -38.463000   38.280000  106.812000 CM   14 RU     -0.3635 ****
439 H5    -37.651626   38.299244  106.084400 HA   14 RU      0.1811 ****
440 C4    -39.032000   39.517000  107.258000 C    14 RU      0.5952 ****
441 O4    -38.708000   40.645000  106.873000 O    14 RU     -0.5761 ****
442 N3    -40.084000   39.377000  108.137000 NA   14 RU     -0.3549 ****
443 H3    -40.523565   40.298540  108.518638 H    14 RU      0.3154 ****
444 C2    -40.629000   38.203000  108.583000 C    14 RU      0.4687 ****
445 O2    -41.546000   38.173000  109.374000 O    14 RU     -0.5477 ****
446 C3'   -41.083000   34.720000  106.392000 CT   14 RU      0.2022 ****
447 H3'   -41.050434   35.314230  105.478802 H1   14 RU      0.0615 ****
448 C2'   -41.818000   35.493000  107.473000 CT   14 RU      0.0670 ****
449 H2'1  -42.266978   36.368393  107.003740 H1   14 RU      0.0972 ****
450 O2'   -42.820000   34.739000  108.114000 OH   14 RU     -0.6139 ****
451 HO'2  -43.222005   35.309424  108.773248 HO   14 RU      0.4186 ****
452 O3'   -41.953000   33.955000  105.580000 OS   14 RU     -0.5246 ****
453 P     -42.432000   34.564000  104.178000 P    15 RG      1.1662 ****
454 O1P   -43.247000   33.531000  103.501000 O2   15 RG     -0.7760 ****
455 O2P   -41.254000   35.134000  103.485000 O2   15 RG     -0.7760 ****
456 O5'   -43.363000   35.774000  104.614000 OS   15 RG     -0.4989 ****
457 C5'   -44.495000   35.524000  105.410000 CI   15 RG      0.0558 ****
458 H5'1  -44.209653   35.044631  106.346420 H1   15 RG      0.0679 ****
459 H5'2  -45.171867   34.854044  104.879802 H1   15 RG      0.0679 ****
460 C4'   -45.209000   36.802000  105.710000 CT   15 RG      0.1065 ****
461 H4'   -46.148560   36.587377  106.219179 H1   15 RG      0.1174 ****
462 O4'   -44.445000   37.570000  106.668000 OS   15 RG     -0.3548 ****
463 C1'   -44.720000   38.953000  106.482000 CT   15 RG      0.0191 ****
464 H1'   -44.969292   39.334911  107.471999 H2   15 RG      0.2006 ****
465 N9    -43.472000   39.633000  106.154000 N*   15 RG      0.0492 ****
466 C8    -42.423000   39.130000  105.428000 CK   15 RG      0.1374 ****
467 H8    -42.400797   38.093564  105.125167 H5   15 RG      0.1640 ****
468 N7    -41.509000   40.023000  105.171000 NB   15 RG     -0.5709 ****
469 C5    -41.971000   41.171000  105.791000 CB   15 RG      0.1744 ****
470 C6    -41.427000   42.462000  105.825000 C    15 RG      0.4770 ****
471 O6    -40.410000   42.881000  105.279000 O    15 RG     -0.5597 ****
472 N1    -42.203000   43.320000  106.578000 NA   15 RG     -0.4787 ****
473 H1    -41.888390   44.264437  106.673180 H    15 RG      0.3424 ****
474 C2    -43.366000   42.979000  107.206000 CA   15 RG      0.7657 ****
475 N2    -43.964000   43.953000  107.896000 N2   15 RG     -0.9672 ****
476 H21   -43.641837   44.903477  108.009598 H    15 RG      0.4364 ****
477 H22   -44.820788   43.708411  108.371595 H    15 RG      0.4364 ****
478 N3    -43.899000   41.779000  107.164000 NC   15 RG     -0.6323 ****
479 C4    -43.155000   40.933000  106.440000 CB   15 RG      0.1222 ****
480 C3'   -45.353000   37.764000  104.552000 CT   15 RG      0.2022 ****
481 H3'   -44.873269   37.993581  103.600554 H1   15 RG      0.0615 ****
482 C2'   -45.674000   39.058000  105.283000 CT   15 RG      0.0670 ****
483 H2'1  -45.422036   39.879429  104.612277 H1   15 RG      0.0972 ****
484 O2'   -47.030000   39.172000  105.680000 OH   15 RG     -0.6139 ****
485 HO'2  -47.121419   40.016413  106.127447 HO   15 RG      0.4186 ****
486 O3'   -46.349000   37.384000  103.619000 OS   15 RG     -0.5246 ****
487 P     -46.058000   37.585000  102.056000 P    16 RA      1.1662 ****
488 O1P   -46.892000   36.619000  101.309000 O2   16 RA     -0.7760 ****
489 O2P   -44.582000   37.531000  101.902000 O2   16 RA     -0.7760 ****
490 O5'   -46.561000   39.076000  101.778000 OS   16 RA     -0.4989 ****
491 C5'   -45.924000   39.901000  100.796000 CI   16 RA      0.0558 ****
492 H5'1  -45.986595   39.417723   99.821000 H1   16 RA      0.0679 ****
493 H5'2  -44.876803   40.042309  101.063413 H1   16 RA      0.0679 ****
494 C4'   -46.605000   41.256000  100.726000 CT   16 RA      0.1065 ****
495 H4'   -46.382154   41.738488   99.774346 H1   16 RA      0.1174 ****
496 O4'   -48.029000   41.013000  100.684000 OS   16 RA     -0.3548 ****
497 C1'   -48.712000   41.962000  101.479000 CT   16 RA      0.0394 ****
498 H1'   -49.492673   42.522191  100.964378 H2   16 RA      0.2007 ****
499 N9    -49.451000   41.237000  102.506000 N*   16 RA     -0.0251 ****
500 C8    -49.479000   39.882000  102.740000 C2   16 RA      0.2006 ****
501 H8    -48.820865   39.219708  102.197204 H5   16 RA      0.1553 ****
502 N7    -50.308000   39.533000  103.693000 NB   16 RA     -0.6073 ****
503 C5    -50.849000   40.741000  104.122000 CB   16 RA      0.0515 ****
504 C6    -51.799000   41.057000  105.113000 CA   16 RA      0.7009 ****
505 N6    -52.467000   40.137000  105.820000 N2   16 RA     -0.9019 ****
506 H61   -53.137125   40.425417  106.518461 H    16 RA      0.4115 ****
507 H62   -52.300808   39.154544  105.654892 H    16 RA      0.4115 ****
508 N1    -52.062000   42.367000  105.337000 NC   16 RA     -0.7615 ****
509 C2    -51.441000   43.280000  104.575000 CQ   16 RA      0.5875 ****
510 H2    -51.634264   44.331038  104.731106 H5   16 RA      0.0473 ****
511 N3    -50.564000   43.101000  103.588000 NC   16 RA     -0.6997 ****
512 C4    -50.306000   41.796000  103.418000 CB   16 RA      0.3053 ****
513 C3'   -46.395000   42.184000  101.921000 CT   16 RA      0.2022 ****
514 H3'   -45.943416   42.132987  102.911742 H1   16 RA      0.0615 ****
515 C2'   -47.704000   42.981000  101.996000 CT   16 RA      0.0670 ****
516 H2'1  -47.826692   43.235181  103.048824 H1   16 RA      0.0972 ****
517 O2'   -47.801000   44.155000  101.214000 OH   16 RA     -0.6139 ****
518 HO'2  -48.670880   44.528045  101.374453 HO   16 RA      0.4186 ****
519 O3'   -45.246000   43.013000  101.719000 OS   16 RA     -0.5246 ****
520 P     -44.147000   43.158000  102.886000 P    17 RA      1.1662 ****
521 O1P   -42.955000   43.794000  102.282000 O2   17 RA     -0.7760 ****
522 O2P   -43.995000   41.836000  103.559000 O2   17 RA     -0.7760 ****
523 O5'   -44.814000   44.212000  103.873000 OS   17 RA     -0.4989 ****
524 C5'   -45.040000   45.536000  103.449000 CI   17 RA      0.0558 ****
525 H5'1  -45.238311   45.606416  102.379507 H1   17 RA      0.0679 ****
526 H5'2  -44.151024   46.136548  103.641782 H1   17 RA      0.0679 ****
527 C4'   -46.200000   46.102000  104.202000 CT   17 RA      0.1065 ****
528 H4'   -46.625600   46.974942  103.707088 H1   17 RA      0.1174 ****
529 O4'   -47.236000   45.106000  104.130000 OS   17 RA     -0.3548 ****
530 C1'   -48.038000   45.169000  105.295000 CT   17 RA      0.0394 ****
531 H1'   -49.075929   45.462082  105.137183 H2   17 RA      0.2007 ****
532 N9    -48.156000   43.820000  105.828000 N*   17 RA     -0.0251 ****
533 C8    -47.460000   42.691000  105.463000 C2   17 RA      0.2006 ****
534 H8    -46.634593   42.760142  104.769946 H5   17 RA      0.1553 ****
535 N7    -47.862000   41.603000  106.078000 NB   17 RA     -0.6073 ****
536 C5    -48.874000   42.055000  106.910000 CB   17 RA      0.0515 ****
537 C6    -49.704000   41.396000  107.801000 CA   17 RA      0.7009 ****
538 N6    -49.664000   40.077000  107.993000 N2   17 RA     -0.9019 ****
539 H61   -50.291525   39.643828  108.655325 H    17 RA      0.4115 ****
540 H62   -49.006180   39.511153  107.476096 H    17 RA      0.4115 ****
541 N1    -50.602000   42.136000  108.494000 NC   17 RA     -0.7615 ****
542 C2    -50.654000   43.456000  108.268000 CQ   17 RA      0.5875 ****
543 H2    -51.362902   44.070213  108.803350 H5   17 RA      0.0473 ****
544 N3    -49.927000   44.191000  107.435000 NC   17 RA     -0.6997 ****
545 C4    -49.047000   43.420000  106.782000 CB   17 RA      0.3053 ****
546 C3'   -46.003000   46.291000  105.701000 CT   17 RA      0.2022 ****
547 H3'   -45.295178   45.973409  106.466653 H1   17 RA      0.0615 ****
548 C2'   -47.426000   46.189000  106.249000 CT   17 RA      0.0670 ****
549 H2'1  -47.347210   45.871262  107.288680 H1   17 RA      0.0972 ****
550 O2'   -48.159000   47.391000  106.180000 OH   17 RA     -0.6139 ****
551 HO'2  -49.027603   47.211541  106.547318 HO   17 RA      0.4186 ****
552 O3'   -45.423000   47.561000  105.996000 OS   17 RA     -0.5246 ****
553 P     -44.569000   47.751000  107.348000 P    18 RA      1.1662 ****
554 O1P   -44.034000   49.141000  107.381000 O2   18 RA     -0.7760 ****
555 O2P   -43.639000   46.595000  107.436000 O2   18 RA     -0.7760 ****
556 O5'   -45.668000   47.663000  108.496000 OS   18 RA     -0.4989 ****
557 C5'   -46.567000   48.748000  108.742000 CI   18 RA      0.0558 ****
558 H5'1  -47.159497   48.968000  107.853942 H1   18 RA      0.0679 ****
559 H5'2  -45.997888   49.639377  109.005928 H1   18 RA      0.0679 ****
560 C4'   -47.493000   48.387000  109.880000 CT   18 RA      0.1065 ****
561 H4'   -48.191782   49.194209  110.099586 H1   18 RA      0.1174 ****
562 O4'   -48.334000   47.281000  109.467000 OS   18 RA     -0.3548 ****
563 C1'   -48.451000   46.343000  110.521000 CT   18 RA      0.0394 ****
564 H1'   -49.470060   46.012975  110.722744 H2   18 RA      0.2007 ****
565 N9    -47.789000   45.120000  110.096000 N*   18 RA     -0.0251 ****
566 C8    -46.715000   45.021000  109.269000 C2   18 RA      0.2006 ****
567 H8    -46.212874   45.911431  108.920573 H5   18 RA      0.1553 ****
568 N7    -46.355000   43.791000  109.022000 NB   18 RA     -0.6073 ****
569 C5    -47.253000   43.029000  109.744000 CB   18 RA      0.0515 ****
570 C6    -47.407000   41.645000  109.892000 CA   18 RA      0.7009 ****
571 N6    -46.638000   40.741000  109.277000 N2   18 RA     -0.9019 ****
572 H61   -46.800277   39.755237  109.425451 H    18 RA      0.4115 ****
573 H62   -45.894678   41.043713  108.663862 H    18 RA      0.4115 ****
574 N1    -48.395000   41.206000  110.697000 NC   18 RA     -0.7615 ****
575 C2    -49.170000   42.109000  111.299000 CQ   18 RA      0.5875 ****
576 H2    -49.966458   41.785378  111.952700 H5   18 RA      0.0473 ****
577 N3    -49.127000   43.438000  111.227000 NC   18 RA     -0.6997 ****
578 C4    -48.132000   43.835000  110.422000 CB   18 RA      0.3053 ****
579 C3'   -46.773000   47.874000  111.115000 CT   18 RA      0.2022 ****
580 H3'   -45.772646   47.527243  111.374136 H1   18 RA      0.0615 ****
581 C2'   -47.805000   46.961000  111.750000 CT   18 RA      0.0670 ****
582 H2'1  -47.284196   46.282533  112.425682 H1   18 RA      0.0972 ****
583 O2'   -48.785000   47.673000  112.465000 OH   18 RA     -0.6139 ****
584 HO'2  -49.391855   47.025149  112.830535 HO   18 RA      0.4186 ****
585 O3'   -46.426000   48.947000  111.979000 OS   18 RA     -0.5246 ****
586 P     -45.246000   48.748000  113.053000 P    19 RG      1.1662 ****
587 O1P   -45.154000   49.996000  113.861000 O2   19 RG     -0.7760 ****
588 O2P   -44.041000   48.210000  112.339000 O2   19 RG     -0.7760 ****
589 O5'   -45.810000   47.627000  114.030000 OS   19 RG     -0.4989 ****
590 C5'   -44.947000   46.662000  114.608000 CI   19 RG      0.0558 ****
591 H5'1  -44.753977   46.874000  115.659617 H1   19 RG      0.0679 ****
592 H5'2  -43.986447   46.678016  114.093043 H1   19 RG      0.0679 ****
593 C4'   -45.553000   45.290000  114.483000 CT   19 RG      0.1065 ****
594 H4'   -46.585165   45.271484  114.832845 H1   19 RG      0.1174 ****
595 O4'   -45.638000   44.931000  113.084000 OS   19 RG     -0.3548 ****
596 C1'   -45.454000   43.536000  112.946000 CT   19 RG      0.0191 ****
597 H1'   -46.293235   43.068248  112.431226 H2   19 RG      0.2006 ****
598 N9    -44.342000   43.335000  112.041000 N*   19 RG      0.0492 ****
599 C8    -43.588000   44.314000  111.459000 CK   19 RG      0.1374 ****
600 H8    -43.751607   45.355449  111.693557 H5   19 RG      0.1640 ****
601 N7    -42.698000   43.846000  110.629000 NB   19 RG     -0.5709 ****
602 C5    -42.870000   42.475000  110.683000 CB   19 RG      0.1744 ****
603 C6    -42.198000   41.449000  109.991000 C    19 RG      0.4770 ****
604 O6    -41.299000   41.546000  109.137000 O    19 RG     -0.5597 ****
605 N1    -42.667000   40.201000  110.360000 NA   19 RG     -0.4787 ****
606 H1    -42.244636   39.402625  109.930807 H    19 RG      0.3424 ****
607 C2    -43.661000   39.974000  111.268000 CA   19 RG      0.7657 ****
608 N2    -43.958000   38.688000  111.487000 N2   19 RG     -0.9672 ****
609 H21   -43.535607   37.883110  111.046732 H    19 RG      0.4364 ****
610 H22   -44.697304   38.502238  112.149588 H    19 RG      0.4364 ****
611 N3    -44.312000   40.928000  111.914000 NC   19 RG     -0.6323 ****
612 C4    -43.866000   42.145000  111.572000 CB   19 RG      0.1222 ****
613 C3'   -44.700000   44.189000  115.065000 CT   19 RG      0.2022 ****
614 H3'   -43.660721   44.031612  115.353491 H1   19 RG      0.0615 ****
615 C2'   -45.213000   42.963000  114.334000 CT   19 RG      0.0670 ****
616 H2'1  -44.468128   42.173459  114.433451 H1   19 RG      0.0972 ****
617 O2'   -46.443000   42.513000  114.845000 OH   19 RG     -0.6139 ****
618 HO'2  -46.694752   41.741636  114.331952 HO   19 RG      0.4186 ****
619 O3'   -44.910000   44.131000  116.460000 OS   19 RG     -0.5246 ****
620 P     -43.644000   44.108000  117.444000 P    20 RU      1.1662 ****
621 O1P   -44.158000   44.526000  118.788000 O2   20 RU     -0.7760 ****
622 O2P   -42.526000   44.865000  116.812000 O2   20 RU     -0.7760 ****
623 O5'   -43.236000   42.574000  117.422000 OS   20 RU     -0.4989 ****
624 C5'   -44.193000   41.596000  117.756000 CI   20 RU      0.0558 ****
625 H5'1  -45.188471   41.862976  117.401230 H1   20 RU      0.0679 ****
626 H5'2  -44.256942   41.504858  118.840299 H1   20 RU      0.0679 ****
627 C4'   -43.802000   40.274000  117.175000 CT   20 RU      0.1065 ****
628 H4'   -44.554258   39.516136  117.393746 H1   20 RU      0.1174 ****
629 O4'   -43.791000   40.367000  115.740000 OS   20 RU     -0.3548 ****
630 C1'   -42.869000   39.437000  115.225000 CT   20 RU      0.0674 ****
631 H1'   -43.314841   38.733518  114.521836 H2   20 RU      0.1824 ****
632 N1    -41.931000   40.180000  114.395000 N*   20 RU      0.0418 ****
633 C6    -41.876000   41.547000  114.446000 CM   20 RU     -0.1126 ****
634 H6    -42.488827   42.066789  115.167569 H4   20 RU      0.2188 ****
635 C5    -41.053000   42.259000  113.671000 CM   20 RU     -0.3635 ****
636 H5    -41.043475   43.348185  113.712046 HA   20 RU      0.1811 ****
637 C4    -40.182000   41.585000  112.751000 C    20 RU      0.5952 ****
638 O4    -39.400000   42.127000  111.967000 O    20 RU     -0.5761 ****
639 N3    -40.281000   40.204000  112.768000 NA   20 RU     -0.3549 ****
640 H3    -39.625264   39.659589  112.088495 H    20 RU      0.3154 ****
641 C2    -41.120000   39.451000  113.555000 C    20 RU      0.4687 ****
642 O2    -41.144000   38.221000  113.514000 O    20 RU     -0.5477 ****
643 C3'   -42.392000   39.837000  117.471000 CT   20 RU      0.2022 ****
644 H3'   -41.434832   40.278472  117.748547 H1   20 RU      0.0615 ****
645 C2'   -42.172000   38.783000  116.410000 CT   20 RU      0.0670 ****
646 H2'1  -41.098862   38.617241  116.315138 H1   20 RU      0.0972 ****
647 O2'   -42.808000   37.567000  116.725000 OH   20 RU     -0.6139 ****
648 HO'2  -42.620315   36.957884  116.007120 HO   20 RU      0.4186 ****
649 O3'   -42.297000   39.308000  118.768000 OS   20 RU     -0.5246 ****
650 P     -40.918000   39.449000  119.546000 P    21 RC      1.1662 ****
651 O1P   -41.168000   38.988000  120.939000 O2   21 RC     -0.7760 ****
652 O2P   -40.392000   40.822000  119.299000 O2   21 RC     -0.7760 ****
653 O5'   -40.018000   38.400000  118.770000 OS   21 RC     -0.4989 ****
654 C5'   -40.459000   37.068000  118.659000 CI   21 RC      0.0558 ****
655 H5'1  -41.381259   37.036259  118.078887 H1   21 RC      0.0679 ****
656 H5'2  -40.643928   36.661882  119.653470 H1   21 RC      0.0679 ****
657 C4'   -39.420000   36.238000  117.976000 CT   21 RC      0.1065 ****
658 H4'   -39.671081   35.182931  118.085034 H1   21 RC      0.1174 ****
659 O4'   -39.448000   36.471000  116.552000 OS   21 RC     -0.3548 ****
660 C1'   -38.132000   36.394000  116.036000 CT   21 RC      0.0066 ****
661 H1'   -38.122781   35.773217  115.140096 H2   21 RC      0.2029 ****
662 N1    -37.786000   37.727000  115.537000 N*   21 RC     -0.0484 ****
663 C6    -38.233000   38.854000  116.175000 C1   21 RC      0.0053 ****
664 H6    -38.843638   38.767264  117.061565 H4   21 RC      0.1958 ****
665 C5    -37.925000   40.071000  115.717000 C1   21 RC     -0.5215 ****
666 H5    -38.288630   40.952968  116.244263 HA   21 RC      0.1928 ****
667 C4    -37.120000   40.143000  114.538000 CA   21 RC      0.8185 ****
668 N4    -36.780000   41.329000  114.035000 N2   21 RC     -0.9530 ****
669 H41   -36.207259   41.339445  113.203160 H    21 RC      0.4234 ****
670 H42   -37.091898   42.179656  114.481324 H    21 RC      0.4234 ****
671 N3    -36.681000   39.048000  113.909000 NC   21 RC     -0.7584 ****
672 C2    -36.992000   37.826000  114.395000 C    21 RC      0.7538 ****
673 O2    -36.590000   36.781000  113.862000 O    21 RC     -0.6252 ****
674 C3'   -37.997000   36.553000  118.368000 CT   21 RC      0.2022 ****
675 H3'   -37.414327   37.351986  118.826491 H1   21 RC      0.0615 ****
676 C2'   -37.229000   35.977000  117.194000 CT   21 RC      0.0670 ****
677 H2'1  -36.227335   36.406762  117.202524 H1   21 RC      0.0972 ****
678 O2'   -37.137000   34.571000  117.250000 OH   21 RC     -0.6139 ****
679 HO'2  -36.640524   34.291216  116.477451 HO   21 RC      0.4186 ****
680 O3'   -37.678000   35.910000  119.578000 OS   21 RC     -0.5246 ****
681 P     -36.262000   36.177000  120.252000 P    22 RG      1.1662 ****
682 O1P   -36.266000   35.511000  121.581000 O2   22 RG     -0.7760 ****
683 O2P   -35.956000   37.635000  120.157000 O2   22 RG     -0.7760 ****
684 O5'   -35.280000   35.380000  119.292000 OS   22 RG     -0.4989 ****
685 C5'   -33.904000   35.662000  119.317000 CI   22 RG      0.0558 ****
686 H5'1  -33.429756   35.193416  120.179335 H1   22 RG      0.0679 ****
687 H5'2  -33.754649   36.738845  119.395730 H1   22 RG      0.0679 ****
688 C4'   -33.247000   35.171000  118.068000 CT   22 RG      0.1065 ****
689 H4'   -33.310243   34.088499  117.957128 H1   22 RG      0.1174 ****
690 O4'   -33.930000   35.696000  116.902000 OS   22 RG     -0.3548 ****
691 C1'   -32.973000   36.131000  115.945000 CT   22 RG      0.0191 ****
692 H1'   -33.220797   35.780094  114.943221 H2   22 RG      0.2006 ****
693 N9    -33.089000   37.583000  115.841000 N*   22 RG      0.0492 ****
694 C8    -33.954000   38.385000  116.547000 CK   22 RG      0.1374 ****
695 H8    -34.602871   37.967634  117.302760 H5   22 RG      0.1640 ****
696 N7    -33.890000   39.640000  116.200000 NB   22 RG     -0.5709 ****
697 C5    -32.916000   39.670000  115.213000 CB   22 RG      0.1744 ****
698 C6    -32.419000   40.755000  114.450000 C    22 RG      0.4770 ****
699 O6    -32.776000   41.939000  114.468000 O    22 RG     -0.5597 ****
700 N1    -31.408000   40.350000  113.588000 NA   22 RG     -0.4787 ****
701 H1    -30.983757   41.049198  113.012552 H    22 RG      0.3424 ****
702 C2    -30.944000   39.068000  113.467000 CA   22 RG      0.7657 ****
703 N2    -29.948000   38.884000  112.589000 N2   22 RG     -0.9672 ****
704 H21   -29.515986   39.585041  112.004187 H    22 RG      0.4364 ****
705 H22   -29.605352   37.939399  112.486916 H    22 RG      0.4364 ****
706 N3    -31.416000   38.042000  114.156000 NC   22 RG     -0.6323 ****
707 C4    -32.392000   38.413000  115.003000 CB   22 RG      0.1222 ****
708 C3'   -31.838000   35.695000  117.943000 CT   22 RG      0.2022 ****
709 H3'   -31.216389   36.482590  118.368913 H1   22 RG      0.0615 ****
710 C2'   -31.616000   35.631000  116.441000 CT   22 RG      0.0670 ****
711 H2'1  -30.734399   36.227563  116.206495 H1   22 RG      0.0972 ****
712 O2'   -31.427000   34.306000  115.974000 OH   22 RG     -0.6139 ****
713 HO'2  -31.295274   34.359139  115.024566 HO   22 RG      0.4186 ****
714 O3'   -30.997000   34.882000  118.728000 OS   22 RG     -0.5246 ****
715 P     -30.399000   35.469000  120.095000 P    23 RC      1.1662 ****
716 O1P   -30.655000   34.502000  121.184000 O2   23 RC     -0.7760 ****
717 O2P   -30.804000   36.887000  120.278000 O2   23 RC     -0.7760 ****
718 O5'   -28.847000   35.451000  119.782000 OS   23 RC     -0.4989 ****
719 C5'   -28.086000   36.633000  119.885000 CI   23 RC      0.0558 ****
720 H5'1  -27.463310   36.588279  120.778508 H1   23 RC      0.0679 ****
721 H5'2  -28.754426   37.491037  119.956265 H1   23 RC      0.0679 ****
722 C4'   -27.206000   36.798000  118.677000 CT   23 RC      0.1065 ****
723 H4'   -26.733468   35.861850  118.379618 H1   23 RC      0.1174 ****
724 O4'   -28.016000   37.176000  117.533000 OS   23 RC     -0.3548 ****
725 C1'   -27.365000   38.205000  116.806000 CT   23 RC      0.0066 ****
726 H1'   -27.302317   37.920332  115.755698 H2   23 RC      0.2029 ****
727 N1    -28.248000   39.397000  116.794000 N*   23 RC     -0.0484 ****
728 C6    -29.339000   39.458000  117.609000 C1   23 RC      0.0053 ****
729 H6    -29.567229   38.631273  118.265379 H4   23 RC      0.1958 ****
730 C5    -30.138000   40.527000  117.613000 C1   23 RC     -0.5215 ****
731 H5    -31.006402   40.542263  118.271594 HA   23 RC      0.1928 ****
732 C4    -29.805000   41.598000  116.746000 CA   23 RC      0.8185 ****
733 N4    -30.551000   42.692000  116.726000 N2   23 RC     -0.9530 ****
734 H41   -30.278511   43.434653  116.098053 H    23 RC      0.4234 ****
735 H42   -31.361578   42.766486  117.323926 H    23 RC      0.4234 ****
736 N3    -28.750000   41.551000  115.940000 NC   23 RC     -0.7584 ****
737 C2    -27.956000   40.465000  115.935000 C    23 RC      0.7538 ****
738 O2    -26.981000   40.387000  115.185000 O    23 RC     -0.6252 ****
739 C3'   -26.203000   37.920000  118.860000 CT   23 RC      0.2022 ****
740 H3'   -25.939462   38.716016  119.556423 H1   23 RC      0.0615 ****
741 C2'   -25.975000   38.399000  117.431000 CT   23 RC      0.0670 ****
742 H2'1  -25.622732   39.429912  117.466046 H1   23 RC      0.0972 ****
743 O2'   -25.021000   37.597000  116.755000 OH   23 RC     -0.6139 ****
744 HO'2  -24.930252   37.955477  115.869077 HO   23 RC      0.4186 ****
745 O3'   -25.026000   37.345000  119.416000 OS   23 RC     -0.5246 ****
746 P     -24.623000   37.625000  120.952000 P    24 RA      1.1662 ****
747 O1P   -24.214000   39.042000  121.143000 O2   24 RA     -0.7760 ****
748 O2P   -23.670000   36.534000  121.272000 O2   24 RA     -0.7760 ****
749 O5'   -25.942000   37.382000  121.812000 OS   24 RA     -0.4989 ****
750 C5'   -26.347000   36.067000  122.179000 CI   24 RA      0.0558 ****
751 H5'1  -25.719802   35.358668  121.637716 H1   24 RA      0.0679 ****
752 H5'2  -27.396939   35.924894  121.923002 H1   24 RA      0.0679 ****
753 C4'   -26.173000   35.851000  123.662000 CT   24 RA      0.1065 ****
754 H4'   -26.679950   34.920440  123.917263 H1   24 RA      0.1174 ****
755 O4'   -24.775000   35.600000  123.969000 OS   24 RA     -0.3548 ****
756 C1'   -24.500000   36.043000  125.290000 CT   24 RA      0.0394 ****
757 H1'   -24.212959   35.244554  125.974246 H2   24 RA      0.2007 ****
758 N9    -23.309000   36.907000  125.271000 N*   24 RA     -0.0251 ****
759 C8    -22.476000   37.151000  124.203000 C2   24 RA      0.2006 ****
760 H8    -22.712888   36.746720  123.229942 H5   24 RA      0.1553 ****
761 N7    -21.464000   37.938000  124.486000 NB   24 RA     -0.6073 ****
762 C5    -21.641000   38.241000  125.828000 CB   24 RA      0.0515 ****
763 C6    -20.897000   39.033000  126.725000 CA   24 RA      0.7009 ****
764 N6    -19.780000   39.685000  126.388000 N2   24 RA     -0.9019 ****
765 H61   -19.290435   40.237702  127.077163 H    24 RA      0.4115 ****
766 H62   -19.425471   39.624999  125.444173 H    24 RA      0.4115 ****
767 N1    -21.344000   39.133000  127.995000 NC   24 RA     -0.7615 ****
768 C2    -22.461000   38.476000  128.334000 CQ   24 RA      0.5875 ****
769 H2    -22.837408   38.541345  129.344172 H5   24 RA      0.0473 ****
770 N3    -23.245000   37.699000  127.585000 NC   24 RA     -0.6997 ****
771 C4    -22.777000   37.620000  126.327000 CB   24 RA      0.3053 ****
772 C3'   -26.557000   37.007000  124.574000 CT   24 RA      0.2022 ****
773 H3'   -26.695826   38.086244  124.510282 H1   24 RA      0.0615 ****
774 C2'   -25.787000   36.667000  125.849000 CT   24 RA      0.0670 ****
775 H2'1  -25.664879   37.579120  126.433143 H1   24 RA      0.0972 ****
776 O2'   -26.470000   35.699000  126.624000 OH   24 RA     -0.6139 ****
777 HO'2  -25.934120   35.534339  127.403307 HO   24 RA      0.4186 ****
778 O3'   -27.965000   37.030000  124.817000 OS   24 RA     -0.5246 ****
779 P     -28.632000   38.291000  125.573000 P    25 RC      1.1662 ****
780 O1P   -27.632000   39.387000  125.734000 O2   25 RC     -0.7760 ****
781 O2P   -29.346000   37.775000  126.764000 O2   25 RC     -0.7760 ****
782 O5'   -29.737000   38.789000  124.544000 OS   25 RC     -0.4989 ****
783 C5'   -29.559000   38.621000  123.137000 CI   25 RC      0.0558 ****
784 H5'1  -29.999898   37.680335  122.807065 H1   25 RC      0.0679 ****
785 H5'2  -28.494258   38.605704  122.904213 H1   25 RC      0.0679 ****
786 C4'   -30.214000   39.762000  122.398000 CT   25 RC      0.1065 ****
787 H4'   -30.167311   39.603575  121.320586 H1   25 RC      0.1174 ****
788 O4'   -31.635000   39.761000  122.705000 OS   25 RC     -0.3548 ****
789 C1'   -32.107000   41.099000  122.773000 CT   25 RC      0.0066 ****
790 H1'   -32.952796   41.214162  122.095160 H2   25 RC      0.2029 ****
791 N1    -32.695000   41.331000  124.107000 N*   25 RC     -0.0484 ****
792 C6    -32.831000   40.307000  125.004000 C1   25 RC      0.0053 ****
793 H6    -32.510750   39.310495  124.737886 H4   25 RC      0.1958 ****
794 C5    -33.360000   40.518000  126.221000 C1   25 RC     -0.5215 ****
795 H5    -33.458906   39.680391  126.911455 HA   25 RC      0.1928 ****
796 C4    -33.769000   41.850000  126.545000 CA   25 RC      0.8185 ****
797 N4    -34.292000   42.124000  127.749000 N2   25 RC     -0.9530 ****
798 H41   -34.566090   43.077993  127.935739 H    25 RC      0.4234 ****
799 H42   -34.401815   41.391027  128.435143 H    25 RC      0.4234 ****
800 N3    -33.647000   42.859000  125.676000 NC   25 RC     -0.7584 ****
801 C2    -33.120000   42.634000  124.446000 C    25 RC      0.7538 ****
802 O2    -33.007000   43.548000  123.606000 O    25 RC     -0.6252 ****
803 C3'   -29.743000   41.147000  122.818000 CT   25 RC      0.2022 ****
804 H3'   -29.181833   41.618194  123.624949 H1   25 RC      0.0615 ****
805 C2'   -30.930000   42.022000  122.448000 CT   25 RC      0.0670 ****
806 H2'1  -30.872782   42.933592  123.042833 H1   25 RC      0.0972 ****
807 O2'   -30.952000   42.357000  121.074000 OH   25 RC     -0.6139 ****
808 HO'2  -31.726984   42.905264  120.931148 HO   25 RC      0.4186 ****
809 O3'   -28.603000   41.533000  122.074000 OS   25 RC     -0.5246 ****
810 P     -27.757000   42.817000  122.521000 P    26 RG      1.1662 ****
811 O1P   -26.944000   42.408000  123.691000 O2   26 RG     -0.7760 ****
812 O2P   -28.631000   44.009000  122.626000 O2   26 RG     -0.7760 ****
813 O5'   -26.788000   43.021000  121.283000 OS   26 RG     -0.4989 ****
814 C5'   -26.034000   41.929000  120.781000 CI   26 RG      0.0558 ****
815 H5'1  -26.670555   41.046054  120.723511 H1   26 RG      0.0679 ****
816 H5'2  -25.195393   41.728731  121.447881 H1   26 RG      0.0679 ****
817 C4'   -25.505000   42.248000  119.408000 CT   26 RG      0.1065 ****
818 H4'   -24.795235   41.478866  119.103425 H1   26 RG      0.1174 ****
819 O4'   -26.575000   42.164000  118.429000 OS   26 RG     -0.3548 ****
820 C1'   -26.454000   43.229000  117.499000 CT   26 RG      0.0191 ****
821 H1'   -26.669244   42.860682  116.495949 H2   26 RG      0.2006 ****
822 N9    -27.544000   44.169000  117.764000 N*   26 RG      0.0492 ****
823 C8    -28.598000   43.981000  118.625000 CK   26 RG      0.1374 ****
824 H8    -28.696400   43.063573  119.186289 H5   26 RG      0.1640 ****
825 N7    -29.414000   44.997000  118.668000 NB   26 RG     -0.5709 ****
826 C5    -28.868000   45.913000  117.781000 CB   26 RG      0.1744 ****
827 C6    -29.311000   47.204000  117.409000 C    26 RG      0.4770 ****
828 O6    -30.312000   47.817000  117.792000 O    26 RG     -0.5597 ****
829 N1    -28.459000   47.791000  116.489000 NA   26 RG     -0.4787 ****
830 H1    -28.687561   48.712068  116.173731 H    26 RG      0.3424 ****
831 C2    -27.333000   47.213000  115.977000 CA   26 RG      0.7657 ****
832 N2    -26.649000   47.947000  115.093000 N2   26 RG     -0.9672 ****
833 H21   -26.883321   48.871132  114.759572 H    26 RG      0.4364 ****
834 H22   -25.819130   47.524534  114.701926 H    26 RG      0.4364 ****
835 N3    -26.909000   46.006000  116.305000 NC   26 RG     -0.6323 ****
836 C4    -27.717000   45.418000  117.211000 CB   26 RG      0.1222 ****
837 C3'   -24.962000   43.655000  119.246000 CT   26 RG      0.2022 ****
838 H3'   -25.065535   44.620295  119.741566 H1   26 RG      0.0615 ****
839 C2'   -25.076000   43.842000  117.748000 CT   26 RG      0.0670 ****
840 H2'1  -24.940027   44.896800  117.509237 H1   26 RG      0.0972 ****
841 O2'   -24.094000   43.080000  117.083000 OH   26 RG     -0.6139 ****
842 HO'2  -24.209248   43.233158  116.142330 HO   26 RG      0.4186 ****
843 O3'   -23.629000   43.765000  119.717000 OS   26 RG     -0.5246 ****
844 P     -23.255000   44.927000  120.765000 P    27 RU      1.1662 ****
845 O1P   -21.874000   44.617000  121.189000 O2   27 RU     -0.7760 ****
846 O2P   -24.325000   45.104000  121.788000 O2   27 RU     -0.7760 ****
847 O5'   -23.183000   46.241000  119.876000 OS   27 RU     -0.4989 ****
848 C5'   -22.181000   46.358000  118.878000 CI   27 RU      0.0558 ****
849 H5'1  -22.229191   45.504338  118.201953 H1   27 RU      0.0679 ****
850 H5'2  -21.198318   46.375427  119.349308 H1   27 RU      0.0679 ****
851 C4'   -22.364000   47.624000  118.089000 CT   27 RU      0.1065 ****
852 H4'   -21.581830   47.706385  117.334333 H1   27 RU      0.1174 ****
853 O4'   -23.596000   47.556000  117.329000 OS   27 RU     -0.3548 ****
854 C1'   -24.183000   48.846000  117.275000 CT   27 RU      0.0674 ****
855 H1'   -24.532845   49.068096  116.266842 H2   27 RU      0.1824 ****
856 N1    -25.423000   48.831000  118.059000 N*   27 RU      0.0418 ****
857 C6    -25.793000   47.764000  118.846000 CM   27 RU     -0.1126 ****
858 H6    -25.155483   46.892752  118.875989 H4   27 RU      0.2188 ****
859 C5    -26.883000   47.787000  119.613000 CM   27 RU     -0.3635 ****
860 H5    -27.101584   46.971077  120.301906 HA   27 RU      0.1811 ****
861 C4    -27.709000   48.960000  119.632000 C    27 RU      0.5952 ****
862 O4    -28.652000   49.169000  120.387000 O    27 RU     -0.5761 ****
863 N3    -27.299000   49.965000  118.797000 NA   27 RU     -0.3549 ****
864 H3    -27.924868   50.857019  118.770702 H    27 RU      0.3154 ****
865 C2    -26.192000   49.965000  117.993000 C    27 RU      0.4687 ****
866 O2    -25.910000   50.900000  117.269000 O    27 RU     -0.5477 ****
867 C3'   -22.529000   48.877000  118.919000 CT   27 RU      0.2022 ****
868 H3'   -22.820346   49.159075  119.930757 H1   27 RU      0.0615 ****
869 C2'   -23.191000   49.805000  117.927000 CT   27 RU      0.0670 ****
870 H2'1  -23.616055   50.644563  118.477056 H1   27 RU      0.0972 ****
871 O2'   -22.281000   50.287000  116.965000 OH   27 RU     -0.6139 ****
872 HO'2  -22.773683   50.864112  116.376948 HO   27 RU      0.4186 ****
873 O3'   -21.288000   49.375000  119.356000 OS   27 RU     -0.5246 ****
874 P     -21.227000   50.196000  120.721000 P    28 RA      1.1662 ****
875 O1P   -19.797000   50.473000  120.984000 O2   28 RA     -0.7760 ****
876 O2P   -22.045000   49.486000  121.734000 O2   28 RA     -0.7760 ****
877 O5'   -21.961000   51.552000  120.352000 OS   28 RA     -0.4989 ****
878 C5'   -21.449000   52.375000  119.316000 CI   28 RA      0.0558 ****
879 H5'1  -21.560370   51.881932  118.350298 H1   28 RA      0.0679 ****
880 H5'2  -20.389592   52.562857  119.490538 H1   28 RA      0.0679 ****
881 C4'   -22.185000   53.683000  119.290000 CT   28 RA      0.1065 ****
882 H4'   -21.696867   54.395146  118.624662 H1   28 RA      0.1174 ****
883 O4'   -23.504000   53.498000  118.719000 OS   28 RA     -0.3548 ****
884 C1'   -24.444000   54.292000  119.420000 CT   28 RA      0.0394 ****
885 H1'   -25.075243   54.906485  118.778096 H2   28 RA      0.2007 ****
886 N9    -25.401000   53.382000  120.049000 N*   28 RA     -0.0251 ****
887 C8    -25.183000   52.085000  120.439000 C2   28 RA      0.2006 ****
888 H8    -24.197311   51.651704  120.354907 H5   28 RA      0.1553 ****
889 N7    -26.239000   51.503000  120.953000 NB   28 RA     -0.6073 ****
890 C5    -27.216000   52.485000  120.905000 CB   28 RA      0.0515 ****
891 C6    -28.563000   52.496000  121.300000 CA   28 RA      0.7009 ****
892 N6    -29.180000   51.452000  121.845000 N2   28 RA     -0.9019 ****
893 H61   -30.152456   51.521343  122.108857 H    28 RA      0.4115 ****
894 H62   -28.676259   50.589563  121.995161 H    28 RA      0.4115 ****
895 N1    -29.264000   53.633000  121.115000 NC   28 RA     -0.7615 ****
896 C2    -28.640000   54.686000  120.568000 CQ   28 RA      0.5875 ****
897 H2    -29.180365   55.607378  120.408416 H5   28 RA      0.0473 ****
898 N3    -27.378000   54.800000  120.158000 NC   28 RA     -0.6997 ****
899 C4    -26.712000   53.650000  120.356000 CB   28 RA      0.3053 ****
900 C3'   -22.452000   54.246000  120.665000 CT   28 RA      0.2022 ****
901 H3'   -22.467365   53.904914  121.700144 H1   28 RA      0.0615 ****
902 C2'   -23.651000   55.146000  120.410000 CT   28 RA      0.0670 ****
903 H2'1  -24.129804   55.348528  121.368034 H1   28 RA      0.0972 ****
904 O2'   -23.289000   56.368000  119.797000 OH   28 RA     -0.6139 ****
905 HO'2  -24.097666   56.870364  119.673353 HO   28 RA      0.4186 ****
906 O3'   -21.316000   54.942000  121.134000 OS   28 RA     -0.5246 ****
907 P     -21.315000   55.513000  122.623000 P    29 RC      1.1662 ****
908 O1P   -19.967000   56.075000  122.869000 O2   29 RC     -0.7760 ****
909 O2P   -21.865000   54.476000  123.540000 O2   29 RC     -0.7760 ****
910 O5'   -22.338000   56.723000  122.523000 OS   29 RC     -0.4989 ****
911 C5'   -23.031000   57.188000  123.664000 CI   29 RC      0.0558 ****
912 H5'1  -22.410450   57.893315  124.216765 H1   29 RC      0.0679 ****
913 H5'2  -23.271951   56.345230  124.311905 H1   29 RC      0.0679 ****
914 C4'   -24.304000   57.872000  123.245000 CT   29 RC      0.1065 ****
915 H4'   -24.095408   58.681786  122.545832 H1   29 RC      0.1174 ****
916 O4'   -25.130000   56.945000  122.492000 OS   29 RC     -0.3548 ****
917 C1'   -26.493000   57.139000  122.834000 CT   29 RC      0.0066 ****
918 H1'   -27.068984   57.250207  121.915318 H2   29 RC      0.2029 ****
919 N1    -27.002000   55.886000  123.414000 N*   29 RC     -0.0484 ****
920 C6    -26.218000   54.768000  123.440000 C1   29 RC      0.0053 ****
921 H6    -25.203938   54.812518  123.071087 H4   29 RC      0.1958 ****
922 C5    -26.684000   53.609000  123.917000 C1   29 RC     -0.5215 ****
923 H5    -26.034657   52.733537  123.921208 HA   29 RC      0.1928 ****
924 C4    -28.022000   53.586000  124.399000 CA   29 RC      0.8185 ****
925 N4    -28.546000   52.450000  124.863000 N2   29 RC     -0.9530 ****
926 H41   -29.500382   52.473447  125.192706 H    29 RC      0.4234 ****
927 H42   -27.994833   51.603773  124.877687 H    29 RC      0.4234 ****
928 N3    -28.790000   54.678000  124.400000 NC   29 RC     -0.7584 ****
929 C2    -28.305000   55.844000  123.919000 C    29 RC      0.7538 ****
930 O2    -28.984000   56.879000  123.916000 O    29 RC     -0.6252 ****
931 C3'   -25.179000   58.303000  124.404000 CT   29 RC      0.2022 ****
932 H3'   -25.279275   58.121441  125.474085 H1   29 RC      0.0615 ****
933 C2'   -26.557000   58.349000  123.767000 CT   29 RC      0.0670 ****
934 H2'1  -27.307585   58.313070  124.556576 H1   29 RC      0.0972 ****
935 O2'   -26.729000   59.528000  123.008000 OH   29 RC     -0.6139 ****
936 HO'2  -27.613095   59.495397  122.635290 HO   29 RC      0.4186 ****
937 O3'   -24.775000   59.581000  124.857000 OS   29 RC     -0.5246 ****
938 P     -24.153000   59.728000  126.321000 P    30 RG      1.1662 ****
939 O1P   -24.346000   61.144000  126.721000 O2   30 RG     -0.7760 ****
940 O2P   -22.788000   59.147000  126.290000 O2   30 RG     -0.7760 ****
941 O5'   -25.078000   58.793000  127.219000 OS   30 RG     -0.4989 ****
942 C5'   -25.849000   59.329000  128.285000 CI   30 RG      0.0558 ****
943 H5'1  -25.319990   60.184023  128.705934 H1   30 RG      0.0679 ****
944 H5'2  -25.993497   58.565423  129.049310 H1   30 RG      0.0679 ****
945 C4'   -27.198000   59.781000  127.776000 CT   30 RG      0.1065 ****
946 H4'   -27.104013   60.747975  127.281808 H1   30 RG      0.1174 ****
947 O4'   -27.657000   58.882000  126.732000 OS   30 RG     -0.3548 ****
948 C1'   -29.022000   58.560000  126.943000 CT   30 RG      0.0191 ****
949 H1'   -29.533998   58.532758  125.981119 H2   30 RG      0.2006 ****
950 N9    -29.069000   57.176000  127.398000 N*   30 RG      0.0492 ****
951 C8    -28.023000   56.284000  127.421000 CK   30 RG      0.1374 ****
952 H8    -27.047508   56.565335  127.052672 H5   30 RG      0.1640 ****
953 N7    -28.350000   55.122000  127.916000 NB   30 RG     -0.5709 ****
954 C5    -29.696000   55.251000  128.230000 CB   30 RG      0.1744 ****
955 C6    -30.594000   54.318000  128.800000 C    30 RG      0.4770 ****
956 O6    -30.364000   53.160000  129.175000 O    30 RG     -0.5597 ****
957 N1    -31.874000   54.854000  128.931000 NA   30 RG     -0.4787 ****
958 H1    -32.583467   54.264461  129.317134 H    30 RG      0.3424 ****
959 C2    -32.239000   56.130000  128.569000 CA   30 RG      0.7657 ****
960 N2    -33.526000   56.458000  128.767000 N2   30 RG     -0.9672 ****
961 H21   -34.253549   55.865787  129.141242 H    30 RG      0.4364 ****
962 H22   -33.800831   57.390950  128.494654 H    30 RG      0.4364 ****
963 N3    -31.404000   57.016000  128.050000 NC   30 RG     -0.6323 ****
964 C4    -30.158000   56.510000  127.906000 CB   30 RG      0.1222 ****
965 C3'   -28.294000   59.767000  128.829000 CT   30 RG      0.2022 ****
966 H3'   -28.442239   59.373678  129.834695 H1   30 RG      0.0615 ****
967 C2'   -29.551000   59.531000  128.001000 CT   30 RG      0.0670 ****
968 H2'1  -30.300091   59.100821  128.665762 H1   30 RG      0.0972 ****
969 O2'   -30.070000   60.701000  127.402000 OH   30 RG     -0.6139 ****
970 HO'2  -30.852126   60.441057  126.909751 HO   30 RG      0.4186 ****
971 O3'   -28.321000   60.969000  129.586000 OS   30 RG     -0.5246 ****
972 P     -28.278000   60.891000  131.190000 P    31 RG      1.1662 ****
973 O1P   -28.178000   62.286000  131.684000 O2   31 RG     -0.7760 ****
974 O2P   -27.254000   59.889000  131.592000 O2   31 RG     -0.7760 ****
975 O5'   -29.711000   60.327000  131.585000 OS   31 RG     -0.4989 ****
976 C5'   -30.880000   61.077000  131.304000 CI   31 RG      0.0558 ****
977 H5'1  -30.985409   61.235620  130.230767 H1   31 RG      0.0679 ****
978 H5'2  -30.813639   62.050159  131.790476 H1   31 RG      0.0679 ****
979 C4'   -32.088000   60.349000  131.816000 CT   31 RG      0.1065 ****
980 H4'   -32.986670   60.948633  131.671324 H1   31 RG      0.1174 ****
981 O4'   -32.314000   59.157000  131.019000 OS   31 RG     -0.3548 ****
982 C1'   -32.819000   58.121000  131.850000 CT   31 RG      0.0191 ****
983 H1'   -33.733322   57.703073  131.428749 H2   31 RG      0.2006 ****
984 N9    -31.877000   57.005000  131.807000 N*   31 RG      0.0492 ****
985 C8    -30.574000   57.040000  131.370000 CK   31 RG      0.1374 ****
986 H8    -30.126348   57.963416  131.033383 H5   31 RG      0.1640 ****
987 N7    -29.988000   55.874000  131.413000 NB   31 RG     -0.5709 ****
988 C5    -30.959000   55.017000  131.917000 CB   31 RG      0.1744 ****
989 C6    -30.911000   53.619000  132.174000 C    31 RG      0.4770 ****
990 O6    -29.971000   52.832000  131.994000 O    31 RG     -0.5597 ****
991 N1    -32.117000   53.154000  132.688000 NA   31 RG     -0.4787 ****
992 H1    -32.179354   52.180322  132.907231 H    31 RG      0.3424 ****
993 C2    -33.230000   53.927000  132.919000 CA   31 RG      0.7657 ****
994 N2    -34.300000   53.293000  133.424000 N2   31 RG     -0.9672 ****
995 H21   -34.377552   52.309583  133.640740 H    31 RG      0.4364 ****
996 H22   -35.122606   53.855917  133.586924 H    31 RG      0.4364 ****
997 N3    -33.291000   55.226000  132.674000 NC   31 RG     -0.6323 ****
998 C4    -32.128000   55.702000  132.177000 CB   31 RG      0.1222 ****
999 C3'   -31.946000   59.814000  133.226000 CT   31 RG      0.2022 ****
1000 H3'   -31.153246   59.571241  133.933608 H1   31 RG      0.0615 ****
1001 C2'   -32.997000   58.717000  133.247000 CT   31 RG      0.0670 ****
1002 H2'1  -32.772009   58.048347  134.077892 H1   31 RG      0.0972 ****
1003 O2'   -34.307000   59.232000  133.398000 OH   31 RG     -0.6139 ****
1004 HO'2  -34.905110   58.481099  133.401556 HO   31 RG      0.4186 ****
1005 O3'   -32.197000   60.817000  134.192000 OS   31 RG     -0.5246 ****
1006 P     -31.421000   60.764000  135.593000 P    32 RU      1.1662 ****
1007 O1P   -31.677000   62.055000  136.276000 O2   32 RU     -0.7760 ****
1008 O2P   -30.023000   60.329000  135.331000 O2   32 RU     -0.7760 ****
1009 O5'   -32.168000   59.609000  136.393000 OS   32 RU     -0.4989 ****
1010 C5'   -33.588000   59.598000  136.495000 CI   32 RU      0.0558 ****
1011 H5'1  -34.033127   59.930698  135.557304 H1   32 RU      0.0679 ****
1012 H5'2  -33.900911   60.274511  137.290311 H1   32 RU      0.0679 ****
1013 C4'   -34.079000   58.204000  136.811000 CT   32 RU      0.1065 ****
1014 H4'   -35.168524   58.187742  136.783181 H1   32 RU      0.1174 ****
1015 O4'   -33.675000   57.298000  135.753000 OS   32 RU     -0.3548 ****
1016 C1'   -33.488000   55.999000  136.289000 CT   32 RU      0.0674 ****
1017 H1'   -34.152116   55.261035  135.839047 H2   32 RU      0.1824 ****
1018 N1    -32.155000   55.520000  135.907000 N*   32 RU      0.0418 ****
1019 C6    -31.181000   56.379000  135.455000 CM   32 RU     -0.1126 ****
1020 H6    -31.387586   57.439051  135.451131 H4   32 RU      0.2188 ****
1021 C5    -29.973000   55.959000  135.070000 CM   32 RU     -0.3635 ****
1022 H5    -29.231663   56.657631  134.682141 HA   32 RU      0.1811 ****
1023 C4    -29.657000   54.560000  135.123000 C    32 RU      0.5952 ****
1024 O4    -28.601000   54.040000  134.753000 O    32 RU     -0.5761 ****
1025 N3    -30.674000   53.761000  135.600000 NA   32 RU     -0.3549 ****
1026 H3    -30.460275   52.693915  135.661249 H    32 RU      0.3154 ****
1027 C2    -31.920000   54.166000  136.007000 C    32 RU      0.4687 ****
1028 O2    -32.755000   53.383000  136.429000 O    32 RU     -0.5477 ****
1029 C3'   -33.499000   57.566000  138.060000 CT   32 RU      0.2022 ****
1030 H3'   -32.650414   57.705073  138.729821 H1   32 RU      0.0615 ****
1031 C2'   -33.702000   56.077000  137.799000 CT   32 RU      0.0670 ****
1032 H2'1  -32.966374   55.537121  138.395226 H1   32 RU      0.0972 ****
1033 O2'   -35.000000   55.619000  138.125000 OH   32 RU     -0.6139 ****
1034 HO'2  -35.024463   54.680091  137.926377 HO   32 RU      0.4186 ****
1035 O3'   -34.200000   57.981000  139.225000 OS   32 RU     -0.5246 ****
1036 P     -33.545000   57.724000  140.666000 P    33 RU      1.1662 ****
1037 O1P   -34.642000   57.594000  141.662000 O2   33 RU     -0.7760 ****
1038 O2P   -32.478000   58.743000  140.867000 O2   33 RU     -0.7760 ****
1039 O5'   -32.861000   56.298000  140.485000 OS   33 RU     -0.4989 ****
1040 C5'   -32.619000   55.457000  141.597000 CI   33 RU      0.0558 ****
1041 H5'1  -32.851196   55.998780  142.513875 H1   33 RU      0.0679 ****
1042 H5'2  -31.571525   55.155595  141.604103 H1   33 RU      0.0679 ****
1043 C4'   -33.486000   54.228000  141.515000 CT   33 RU      0.1065 ****
1044 H4'   -34.521720   54.463405  141.759884 H1   33 RU      0.1174 ****
1045 O4'   -33.534000   53.763000  140.146000 OS   33 RU     -0.3548 ****
1046 C1'   -33.257000   52.380000  140.109000 CT   33 RU      0.0674 ****
1047 H1'   -33.855001   51.827466  139.384293 H2   33 RU      0.1824 ****
1048 N1    -31.896000   52.246000  139.584000 N*   33 RU      0.0418 ****
1049 C6    -31.234000   53.346000  139.095000 CM   33 RU     -0.1126 ****
1050 H6    -31.697327   54.315405  139.204460 H4   33 RU      0.2188 ****
1051 C5    -30.024000   53.273000  138.539000 CM   33 RU     -0.3635 ****
1052 H5    -29.549054   54.155276  138.109913 HA   33 RU      0.1811 ****
1053 C4    -29.368000   52.006000  138.434000 C    33 RU      0.5952 ****
1054 O4    -28.297000   51.794000  137.863000 O    33 RU     -0.5761 ****
1055 N3    -30.074000   50.946000  138.978000 NA   33 RU     -0.3549 ****
1056 H3    -29.586496   49.971869  138.939146 H    33 RU      0.3154 ****
1057 C2    -31.313000   50.995000  139.571000 C    33 RU      0.4687 ****
1058 O2    -31.844000   50.008000  140.058000 O    33 RU     -0.5477 ****
1059 C3'   -32.948000   53.060000  142.324000 CT   33 RU      0.2022 ****
1060 H3'   -32.036753   52.800833  142.863038 H1   33 RU      0.0615 ****
1061 C2'   -33.427000   51.858000  141.534000 CT   33 RU      0.0670 ****
1062 H2'1  -32.797015   51.008220  141.796855 H1   33 RU      0.0972 ****
1063 O2'   -34.780000   51.542000  141.802000 OH   33 RU     -0.6139 ****
1064 HO'2  -35.000883   50.776584  141.266324 HO   33 RU      0.4186 ****
1065 O3'   -33.442000   53.078000  143.653000 OS   33 RU     -0.5246 ****
1066 P     -32.423000   52.831000  144.863000 P    34 RC      1.1662 ****
1067 O1P   -32.853000   53.702000  145.996000 O2   34 RC     -0.7760 ****
1068 O2P   -31.037000   52.944000  144.319000 O2   34 RC     -0.7760 ****
1069 O5'   -32.643000   51.304000  145.242000 OS   34 RC     -0.4989 ****
1070 C5'   -31.578000   50.563000  145.795000 CI   34 RC      0.0558 ****
1071 H5'1  -31.763164   50.302618  146.837121 H1   34 RC      0.0679 ****
1072 H5'2  -30.668351   51.163211  145.775362 H1   34 RC      0.0679 ****
1073 C4'   -31.354000   49.310000  145.007000 CT   34 RC      0.1065 ****
1074 H4'   -32.198799   48.625260  145.081476 H1   34 RC      0.1174 ****
1075 O4'   -31.257000   49.614000  143.595000 OS   34 RC     -0.3548 ****
1076 C1'   -30.387000   48.677000  142.981000 CT   34 RC      0.0066 ****
1077 H1'   -30.912610   48.191719  142.158603 H2   34 RC      0.2029 ****
1078 N1    -29.320000   49.414000  142.320000 N*   34 RC     -0.0484 ****
1079 C6    -29.371000   50.775000  142.221000 C1   34 RC      0.0053 ****
1080 H6    -30.191149   51.320777  142.663587 H4   34 RC      0.1958 ****
1081 C5    -28.412000   51.453000  141.578000 C1   34 RC     -0.5215 ****
1082 H5    -28.476159   52.539195  141.513477 HA   34 RC      0.1928 ****
1083 C4    -27.338000   50.696000  141.002000 CA   34 RC      0.8185 ****
1084 N4    -26.361000   51.319000  140.327000 N2   34 RC     -0.9530 ****
1085 H41   -25.623008   50.750092  139.937371 H    34 RC      0.4234 ****
1086 H42   -26.376298   52.323229  140.220277 H    34 RC      0.4234 ****
1087 N3    -27.270000   49.365000  141.114000 NC   34 RC     -0.7584 ****
1088 C2    -28.241000   48.696000  141.774000 C    34 RC      0.7538 ****
1089 O2    -28.200000   47.463000  141.921000 O    34 RC     -0.6252 ****
1090 C3'   -30.020000   48.662000  145.295000 CT   34 RC      0.2022 ****
1091 H3'   -29.048947   48.942692  145.702883 H1   34 RC      0.0615 ****
1092 C2'   -29.821000   47.780000  144.077000 CT   34 RC      0.0670 ****
1093 H2'1  -28.751488   47.586249  143.995113 H1   34 RC      0.0972 ****
1094 O2'   -30.517000   46.556000  144.125000 OH   34 RC     -0.6139 ****
1095 HO'2  -30.317760   46.087716  143.310990 HO   34 RC      0.4186 ****
1096 O3'   -30.037000   47.949000  146.510000 OS   34 RC     -0.5246 ****
@<TRIPOS>BOND
    1    34    35 1
    2    32    33 1
    3    30    31 1
    4    30    32 1
    5    28    29 1
    6    28    30 1
    7    28    34 1
    8    26    27 1
    9    23    24 1
   10    23    25 1
   11    22    23 1
   12    22    26 1
   13    20    21 1
   14    20    22 1
   15    18    19 1
   16    18    20 1
   17    17    18 1
   18    17    27 1
   19    16    17 1
   20    14    15 1
   21    14    16 1
   22    13    14 1
   23    13    27 1
   24    11    12 1
   25    11    13 1
   26    11    30 1
   27    10    11 1
   28     8     9 1
   29     8    10 1
   30     8    28 1
   31     5     6 1
   32     5     7 1
   33     5     8 1
   34     4     5 1
   35     1     2 1
   36     1     3 1
   37     1     4 1
   38    67    68 1
   39    65    66 1
   40    63    64 1
   41    63    65 1
   42    61    62 1
   43    61    63 1
   44    61    67 1
   45    59    60 1
   46    57    58 1
   47    57    59 1
   48    56    57 1
   49    53    54 1
   50    53    55 1
   51    52    53 1
   52    52    56 1
   53    51    52 1
   54    51    60 1
   55    50    51 1
   56    48    49 1
   57    48    50 1
   58    47    48 1
   59    47    60 1
   60    45    46 1
   61    45    47 1
   62    45    63 1
   63    44    45 1
   64    42    43 1
   65    42    44 1
   66    42    61 1
   67    39    40 1
   68    39    41 1
   69    39    42 1
   70    38    39 1
   71    35    36 1
   72    35    37 1
   73    35    38 1
   74   101   102 1
   75    99   100 1
   76    97    98 1
   77    97    99 1
   78    95    96 1
   79    95    97 1
   80    95   101 1
   81    93    94 1
   82    90    91 1
   83    90    92 1
   84    89    90 1
   85    89    93 1
   86    87    88 1
   87    87    89 1
   88    85    86 1
   89    85    87 1
   90    84    85 1
   91    84    94 1
   92    83    84 1
   93    81    82 1
   94    81    83 1
   95    80    81 1
   96    80    94 1
   97    78    79 1
   98    78    80 1
   99    78    97 1
  100    77    78 1
  101    75    76 1
  102    75    77 1
  103    75    95 1
  104    72    73 1
  105    72    74 1
  106    72    75 1
  107    71    72 1
  108    68    69 1
  109    68    70 1
  110    68    71 1
  111   132   133 1
  112   130   131 1
  113   128   129 1
  114   128   130 1
  115   126   127 1
  116   126   128 1
  117   126   132 1
  118   124   125 1
  119   123   124 1
  120   120   121 1
  121   120   122 1
  122   119   120 1
  123   119   123 1
  124   117   118 1
  125   117   119 1
  126   115   116 1
  127   115   117 1
  128   114   115 1
  129   114   124 1
  130   112   113 1
  131   112   114 1
  132   112   128 1
  133   111   112 1
  134   109   110 1
  135   109   111 1
  136   109   126 1
  137   106   107 1
  138   106   108 1
  139   106   109 1
  140   105   106 1
  141   102   103 1
  142   102   104 1
  143   102   105 1
  144   163   164 1
  145   161   162 1
  146   159   160 1
  147   159   161 1
  148   157   158 1
  149   157   159 1
  150   157   163 1
  151   155   156 1
  152   154   155 1
  153   151   152 1
  154   151   153 1
  155   150   151 1
  156   150   154 1
  157   148   149 1
  158   148   150 1
  159   146   147 1
  160   146   148 1
  161   145   146 1
  162   145   155 1
  163   143   144 1
  164   143   145 1
  165   143   159 1
  166   142   143 1
  167   140   141 1
  168   140   142 1
  169   140   157 1
  170   137   138 1
  171   137   139 1
  172   137   140 1
  173   136   137 1
  174   133   134 1
  175   133   135 1
  176   133   136 1
  177   197   198 1
  178   195   196 1
  179   193   194 1
  180   193   195 1
  181   191   192 1
  182   191   193 1
  183   191   197 1
  184   189   190 1
  185   186   187 1
  186   186   188 1
  187   185   186 1
  188   185   189 1
  189   183   184 1
  190   183   185 1
  191   181   182 1
  192   181   183 1
  193   180   181 1
  194   180   190 1
  195   179   180 1
  196   177   178 1
  197   177   179 1
  198   176   177 1
  199   176   190 1
  200   174   175 1
  201   174   176 1
  202   174   193 1
  203   173   174 1
  204   171   172 1
  205   171   173 1
  206   171   191 1
  207   168   169 1
  208   168   170 1
  209   168   171 1
  210   167   168 1
  211   164   165 1
  212   164   166 1
  213   164   167 1
  214   227   228 1
  215   225   226 1
  216   223   224 1
  217   223   225 1
  218   221   222 1
  219   221   223 1
  220   221   227 1
  221   219   220 1
  222   217   218 1
  223   217   219 1
  224   215   216 1
  225   215   217 1
  226   213   214 1
  227   213   215 1
  228   211   212 1
  229   211   213 1
  230   210   211 1
  231   210   219 1
  232   208   209 1
  233   208   210 1
  234   208   223 1
  235   207   208 1
  236   205   206 1
  237   205   207 1
  238   205   221 1
  239   202   203 1
  240   202   204 1
  241   202   205 1
  242   201   202 1
  243   198   199 1
  244   198   200 1
  245   198   201 1
  246   260   261 1
  247   258   259 1
  248   256   257 1
  249   256   258 1
  250   254   255 1
  251   254   256 1
  252   254   260 1
  253   252   253 1
  254   250   251 1
  255   250   252 1
  256   249   250 1
  257   246   247 1
  258   246   248 1
  259   245   246 1
  260   245   249 1
  261   244   245 1
  262   244   253 1
  263   243   244 1
  264   241   242 1
  265   241   243 1
  266   240   241 1
  267   240   253 1
  268   238   239 1
  269   238   240 1
  270   238   256 1
  271   237   238 1
  272   235   236 1
  273   235   237 1
  274   235   254 1
  275   232   233 1
  276   232   234 1
  277   232   235 1
  278   231   232 1
  279   228   229 1
  280   228   230 1
  281   228   231 1
  282   290   291 1
  283   288   289 1
  284   286   287 1
  285   286   288 1
  286   284   285 1
  287   284   286 1
  288   284   290 1
  289   282   283 1
  290   280   281 1
  291   280   282 1
  292   278   279 1
  293   278   280 1
  294   276   277 1
  295   276   278 1
  296   274   275 1
  297   274   276 1
  298   273   274 1
  299   273   282 1
  300   271   272 1
  301   271   273 1
  302   271   286 1
  303   270   271 1
  304   268   269 1
  305   268   270 1
  306   268   284 1
  307   265   266 1
  308   265   267 1
  309   265   268 1
  310   264   265 1
  311   261   262 1
  312   261   263 1
  313   261   264 1
  314   324   325 1
  315   322   323 1
  316   320   321 1
  317   320   322 1
  318   318   319 1
  319   318   320 1
  320   318   324 1
  321   316   317 1
  322   313   314 1
  323   313   315 1
  324   312   313 1
  325   312   316 1
  326   310   311 1
  327   310   312 1
  328   308   309 1
  329   308   310 1
  330   307   308 1
  331   307   317 1
  332   306   307 1
  333   304   305 1
  334   304   306 1
  335   303   304 1
  336   303   317 1
  337   301   302 1
  338   301   303 1
  339   301   320 1
  340   300   301 1
  341   298   299 1
  342   298   300 1
  343   298   318 1
  344   295   296 1
  345   295   297 1
  346   295   298 1
  347   294   295 1
  348   291   292 1
  349   291   293 1
  350   291   294 1
  351   355   356 1
  352   353   354 1
  353   351   352 1
  354   351   353 1
  355   349   350 1
  356   349   351 1
  357   349   355 1
  358   347   348 1
  359   346   347 1
  360   343   344 1
  361   343   345 1
  362   342   343 1
  363   342   346 1
  364   340   341 1
  365   340   342 1
  366   338   339 1
  367   338   340 1
  368   337   338 1
  369   337   347 1
  370   335   336 1
  371   335   337 1
  372   335   351 1
  373   334   335 1
  374   332   333 1
  375   332   334 1
  376   332   349 1
  377   329   330 1
  378   329   331 1
  379   329   332 1
  380   328   329 1
  381   325   326 1
  382   325   327 1
  383   325   328 1
  384   389   390 1
  385   387   388 1
  386   385   386 1
  387   385   387 1
  388   383   384 1
  389   383   385 1
  390   383   389 1
  391   381   382 1
  392   378   379 1
  393   378   380 1
  394   377   378 1
  395   377   381 1
  396   375   376 1
  397   375   377 1
  398   373   374 1
  399   373   375 1
  400   372   373 1
  401   372   382 1
  402   371   372 1
  403   369   370 1
  404   369   371 1
  405   368   369 1
  406   368   382 1
  407   366   367 1
  408   366   368 1
  409   366   385 1
  410   365   366 1
  411   363   364 1
  412   363   365 1
  413   363   383 1
  414   360   361 1
  415   360   362 1
  416   360   363 1
  417   359   360 1
  418   356   357 1
  419   356   358 1
  420   356   359 1
  421   422   423 1
  422   420   421 1
  423   418   419 1
  424   418   420 1
  425   416   417 1
  426   416   418 1
  427   416   422 1
  428   414   415 1
  429   412   413 1
  430   412   414 1
  431   411   412 1
  432   408   409 1
  433   408   410 1
  434   407   408 1
  435   407   411 1
  436   406   407 1
  437   406   415 1
  438   405   406 1
  439   403   404 1
  440   403   405 1
  441   402   403 1
  442   402   415 1
  443   400   401 1
  444   400   402 1
  445   400   418 1
  446   399   400 1
  447   397   398 1
  448   397   399 1
  449   397   416 1
  450   394   395 1
  451   394   396 1
  452   394   397 1
  453   393   394 1
  454   390   391 1
  455   390   392 1
  456   390   393 1
  457   452   453 1
  458   450   451 1
  459   448   449 1
  460   448   450 1
  461   446   447 1
  462   446   448 1
  463   446   452 1
  464   444   445 1
  465   442   443 1
  466   442   444 1
  467   440   441 1
  468   440   442 1
  469   438   439 1
  470   438   440 1
  471   436   437 1
  472   436   438 1
  473   435   436 1
  474   435   444 1
  475   433   434 1
  476   433   435 1
  477   433   448 1
  478   432   433 1
  479   430   431 1
  480   430   432 1
  481   430   446 1
  482   427   428 1
  483   427   429 1
  484   427   430 1
  485   426   427 1
  486   423   424 1
  487   423   425 1
  488   423   426 1
  489   486   487 1
  490   484   485 1
  491   482   483 1
  492   482   484 1
  493   480   481 1
  494   480   482 1
  495   480   486 1
  496   478   479 1
  497   475   476 1
  498   475   477 1
  499   474   475 1
  500   474   478 1
  501   472   473 1
  502   472   474 1
  503   470   471 1
  504   470   472 1
  505   469   470 1
  506   469   479 1
  507   468   469 1
  508   466   467 1
  509   466   468 1
  510   465   466 1
  511   465   479 1
  512   463   464 1
  513   463   465 1
  514   463   482 1
  515   462   463 1
  516   460   461 1
  517   460   462 1
  518   460   480 1
  519   457   458 1
  520   457   459 1
  521   457   460 1
  522   456   457 1
  523   453   454 1
  524   453   455 1
  525   453   456 1
  526   519   520 1
  527   517   518 1
  528   515   516 1
  529   515   517 1
  530   513   514 1
  531   513   515 1
  532   513   519 1
  533   511   512 1
  534   509   510 1
  535   509   511 1
  536   508   509 1
  537   505   506 1
  538   505   507 1
  539   504   505 1
  540   504   508 1
  541   503   504 1
  542   503   512 1
  543   502   503 1
  544   500   501 1
  545   500   502 1
  546   499   500 1
  547   499   512 1
  548   497   498 1
  549   497   499 1
  550   497   515 1
  551   496   497 1
  552   494   495 1
  553   494   496 1
  554   494   513 1
  555   491   492 1
  556   491   493 1
  557   491   494 1
  558   490   491 1
  559   487   488 1
  560   487   489 1
  561   487   490 1
  562   552   553 1
  563   550   551 1
  564   548   549 1
  565   548   550 1
  566   546   547 1
  567   546   548 1
  568   546   552 1
  569   544   545 1
  570   542   543 1
  571   542   544 1
  572   541   542 1
  573   538   539 1
  574   538   540 1
  575   537   538 1
  576   537   541 1
  577   536   537 1
  578   536   545 1
  579   535   536 1
  580   533   534 1
  581   533   535 1
  582   532   533 1
  583   532   545 1
  584   530   531 1
  585   530   532 1
  586   530   548 1
  587   529   530 1
  588   527   528 1
  589   527   529 1
  590   527   546 1
  591   524   525 1
  592   524   526 1
  593   524   527 1
  594   523   524 1
  595   520   521 1
  596   520   522 1
  597   520   523 1
  598   585   586 1
  599   583   584 1
  600   581   582 1
  601   581   583 1
  602   579   580 1
  603   579   581 1
  604   579   585 1
  605   577   578 1
  606   575   576 1
  607   575   577 1
  608   574   575 1
  609   571   572 1
  610   571   573 1
  611   570   571 1
  612   570   574 1
  613   569   570 1
  614   569   578 1
  615   568   569 1
  616   566   567 1
  617   566   568 1
  618   565   566 1
  619   565   578 1
  620   563   564 1
  621   563   565 1
  622   563   581 1
  623   562   563 1
  624   560   561 1
  625   560   562 1
  626   560   579 1
  627   557   558 1
  628   557   559 1
  629   557   560 1
  630   556   557 1
  631   553   554 1
  632   553   555 1
  633   553   556 1
  634   619   620 1
  635   617   618 1
  636   615   616 1
  637   615   617 1
  638   613   614 1
  639   613   615 1
  640   613   619 1
  641   611   612 1
  642   608   609 1
  643   608   610 1
  644   607   608 1
  645   607   611 1
  646   605   606 1
  647   605   607 1
  648   603   604 1
  649   603   605 1
  650   602   603 1
  651   602   612 1
  652   601   602 1
  653   599   600 1
  654   599   601 1
  655   598   599 1
  656   598   612 1
  657   596   597 1
  658   596   598 1
  659   596   615 1
  660   595   596 1
  661   593   594 1
  662   593   595 1
  663   593   613 1
  664   590   591 1
  665   590   592 1
  666   590   593 1
  667   589   590 1
  668   586   587 1
  669   586   588 1
  670   586   589 1
  671   649   650 1
  672   647   648 1
  673   645   646 1
  674   645   647 1
  675   643   644 1
  676   643   645 1
  677   643   649 1
  678   641   642 1
  679   639   640 1
  680   639   641 1
  681   637   638 1
  682   637   639 1
  683   635   636 1
  684   635   637 1
  685   633   634 1
  686   633   635 1
  687   632   633 1
  688   632   641 1
  689   630   631 1
  690   630   632 1
  691   630   645 1
  692   629   630 1
  693   627   628 1
  694   627   629 1
  695   627   643 1
  696   624   625 1
  697   624   626 1
  698   624   627 1
  699   623   624 1
  700   620   621 1
  701   620   622 1
  702   620   623 1
  703   680   681 1
  704   678   679 1
  705   676   677 1
  706   676   678 1
  707   674   675 1
  708   674   676 1
  709   674   680 1
  710   672   673 1
  711   671   672 1
  712   668   669 1
  713   668   670 1
  714   667   668 1
  715   667   671 1
  716   665   666 1
  717   665   667 1
  718   663   664 1
  719   663   665 1
  720   662   663 1
  721   662   672 1
  722   660   661 1
  723   660   662 1
  724   660   676 1
  725   659   660 1
  726   657   658 1
  727   657   659 1
  728   657   674 1
  729   654   655 1
  730   654   656 1
  731   654   657 1
  732   653   654 1
  733   650   651 1
  734   650   652 1
  735   650   653 1
  736   714   715 1
  737   712   713 1
  738   710   711 1
  739   710   712 1
  740   708   709 1
  741   708   710 1
  742   708   714 1
  743   706   707 1
  744   703   704 1
  745   703   705 1
  746   702   703 1
  747   702   706 1
  748   700   701 1
  749   700   702 1
  750   698   699 1
  751   698   700 1
  752   697   698 1
  753   697   707 1
  754   696   697 1
  755   694   695 1
  756   694   696 1
  757   693   694 1
  758   693   707 1
  759   691   692 1
  760   691   693 1
  761   691   710 1
  762   690   691 1
  763   688   689 1
  764   688   690 1
  765   688   708 1
  766   685   686 1
  767   685   687 1
  768   685   688 1
  769   684   685 1
  770   681   682 1
  771   681   683 1
  772   681   684 1
  773   745   746 1
  774   743   744 1
  775   741   742 1
  776   741   743 1
  777   739   740 1
  778   739   741 1
  779   739   745 1
  780   737   738 1
  781   736   737 1
  782   733   734 1
  783   733   735 1
  784   732   733 1
  785   732   736 1
  786   730   731 1
  787   730   732 1
  788   728   729 1
  789   728   730 1
  790   727   728 1
  791   727   737 1
  792   725   726 1
  793   725   727 1
  794   725   741 1
  795   724   725 1
  796   722   723 1
  797   722   724 1
  798   722   739 1
  799   719   720 1
  800   719   721 1
  801   719   722 1
  802   718   719 1
  803   715   716 1
  804   715   717 1
  805   715   718 1
  806   778   779 1
  807   776   777 1
  808   774   775 1
  809   774   776 1
  810   772   773 1
  811   772   774 1
  812   772   778 1
  813   770   771 1
  814   768   769 1
  815   768   770 1
  816   767   768 1
  817   764   765 1
  818   764   766 1
  819   763   764 1
  820   763   767 1
  821   762   763 1
  822   762   771 1
  823   761   762 1
  824   759   760 1
  825   759   761 1
  826   758   759 1
  827   758   771 1
  828   756   757 1
  829   756   758 1
  830   756   774 1
  831   755   756 1
  832   753   754 1
  833   753   755 1
  834   753   772 1
  835   750   751 1
  836   750   752 1
  837   750   753 1
  838   749   750 1
  839   746   747 1
  840   746   748 1
  841   746   749 1
  842   809   810 1
  843   807   808 1
  844   805   806 1
  845   805   807 1
  846   803   804 1
  847   803   805 1
  848   803   809 1
  849   801   802 1
  850   800   801 1
  851   797   798 1
  852   797   799 1
  853   796   797 1
  854   796   800 1
  855   794   795 1
  856   794   796 1
  857   792   793 1
  858   792   794 1
  859   791   792 1
  860   791   801 1
  861   789   790 1
  862   789   791 1
  863   789   805 1
  864   788   789 1
  865   786   787 1
  866   786   788 1
  867   786   803 1
  868   783   784 1
  869   783   785 1
  870   783   786 1
  871   782   783 1
  872   779   780 1
  873   779   781 1
  874   779   782 1
  875   843   844 1
  876   841   842 1
  877   839   840 1
  878   839   841 1
  879   837   838 1
  880   837   839 1
  881   837   843 1
  882   835   836 1
  883   832   833 1
  884   832   834 1
  885   831   832 1
  886   831   835 1
  887   829   830 1
  888   829   831 1
  889   827   828 1
  890   827   829 1
  891   826   827 1
  892   826   836 1
  893   825   826 1
  894   823   824 1
  895   823   825 1
  896   822   823 1
  897   822   836 1
  898   820   821 1
  899   820   822 1
  900   820   839 1
  901   819   820 1
  902   817   818 1
  903   817   819 1
  904   817   837 1
  905   814   815 1
  906   814   816 1
  907   814   817 1
  908   813   814 1
  909   810   811 1
  910   810   812 1
  911   810   813 1
  912   873   874 1
  913   871   872 1
  914   869   870 1
  915   869   871 1
  916   867   868 1
  917   867   869 1
  918   867   873 1
  919   865   866 1
  920   863   864 1
  921   863   865 1
  922   861   862 1
  923   861   863 1
  924   859   860 1
  925   859   861 1
  926   857   858 1
  927   857   859 1
  928   856   857 1
  929   856   865 1
  930   854   855 1
  931   854   856 1
  932   854   869 1
  933   853   854 1
  934   851   852 1
  935   851   853 1
  936   851   867 1
  937   848   849 1
  938   848   850 1
  939   848   851 1
  940   847   848 1
  941   844   845 1
  942   844   846 1
  943   844   847 1
  944   906   907 1
  945   904   905 1
  946   902   903 1
  947   902   904 1
  948   900   901 1
  949   900   902 1
  950   900   906 1
  951   898   899 1
  952   896   897 1
  953   896   898 1
  954   895   896 1
  955   892   893 1
  956   892   894 1
  957   891   892 1
  958   891   895 1
  959   890   891 1
  960   890   899 1
  961   889   890 1
  962   887   888 1
  963   887   889 1
  964   886   887 1
  965   886   899 1
  966   884   885 1
  967   884   886 1
  968   884   902 1
  969   883   884 1
  970   881   882 1
  971   881   883 1
  972   881   900 1
  973   878   879 1
  974   878   880 1
  975   878   881 1
  976   877   878 1
  977   874   875 1
  978   874   876 1
  979   874   877 1
  980   937   938 1
  981   935   936 1
  982   933   934 1
  983   933   935 1
  984   931   932 1
  985   931   933 1
  986   931   937 1
  987   929   930 1
  988   928   929 1
  989   925   926 1
  990   925   927 1
  991   924   925 1
  992   924   928 1
  993   922   923 1
  994   922   924 1
  995   920   921 1
  996   920   922 1
  997   919   920 1
  998   919   929 1
  999   917   918 1
 1000   917   919 1
 1001   917   933 1
 1002   916   917 1
 1003   914   915 1
 1004   914   916 1
 1005   914   931 1
 1006   911   912 1
 1007   911   913 1
 1008   911   914 1
 1009   910   911 1
 1010   907   908 1
 1011   907   909 1
 1012   907   910 1
 1013   971   972 1
 1014   969   970 1
 1015   967   968 1
 1016   967   969 1
 1017   965   966 1
 1018   965   967 1
 1019   965   971 1
 1020   963   964 1
 1021   960   961 1
 1022   960   962 1
 1023   959   960 1
 1024   959   963 1
 1025   957   958 1
 1026   957   959 1
 1027   955   956 1
 1028   955   957 1
 1029   954   955 1
 1030   954   964 1
 1031   953   954 1
 1032   951   952 1
 1033   951   953 1
 1034   950   951 1
 1035   950   964 1
 1036   948   949 1
 1037   948   950 1
 1038   948   967 1
 1039   947   948 1
 1040   945   946 1
 1041   945   947 1
 1042   945   965 1
 1043   942   943 1
 1044   942   944 1
 1045   942   945 1
 1046   941   942 1
 1047   938   939 1
 1048   938   940 1
 1049   938   941 1
 1050  1005  1006 1
 1051  1003  1004 1
 1052  1001  1002 1
 1053  1001  1003 1
 1054   999  1000 1
 1055   999  1001 1
 1056   999  1005 1
 1057   997   998 1
 1058   994   995 1
 1059   994   996 1
 1060   993   994 1
 1061   993   997 1
 1062   991   992 1
 1063   991   993 1
 1064   989   990 1
 1065   989   991 1
 1066   988   989 1
 1067   988   998 1
 1068   987   988 1
 1069   985   986 1
 1070   985   987 1
 1071   984   985 1
 1072   984   998 1
 1073   982   983 1
 1074   982   984 1
 1075   982  1001 1
 1076   981   982 1
 1077   979   980 1
 1078   979   981 1
 1079   979   999 1
 1080   976   977 1
 1081   976   978 1
 1082   976   979 1
 1083   975   976 1
 1084   972   973 1
 1085   972   974 1
 1086   972   975 1
 1087  1035  1036 1
 1088  1033  1034 1
 1089  1031  1032 1
 1090  1031  1033 1
 1091  1029  1030 1
 1092  1029  1031 1
 1093  1029  1035 1
 1094  1027  1028 1
 1095  1025  1026 1
 1096  1025  1027 1
 1097  1023  1024 1
 1098  1023  1025 1
 1099  1021  1022 1
 1100  1021  1023 1
 1101  1019  1020 1
 1102  1019  1021 1
 1103  1018  1019 1
 1104  1018  1027 1
 1105  1016  1017 1
 1106  1016  1018 1
 1107  1016  1031 1
 1108  1015  1016 1
 1109  1013  1014 1
 1110  1013  1015 1
 1111  1013  1029 1
 1112  1010  1011 1
 1113  1010  1012 1
 1114  1010  1013 1
 1115  1009  1010 1
 1116  1006  1007 1
 1117  1006  1008 1
 1118  1006  1009 1
 1119  1065  1066 1
 1120  1063  1064 1
 1121  1061  1062 1
 1122  1061  1063 1
 1123  1059  1060 1
 1124  1059  1061 1
 1125  1059  1065 1
 1126  1057  1058 1
 1127  1055  1056 1
 1128  1055  1057 1
 1129  1053  1054 1
 1130  1053  1055 1
 1131  1051  1052 1
 1132  1051  1053 1
 1133  1049  1050 1
 1134  1049  1051 1
 1135  1048  1049 1
 1136  1048  1057 1
 1137  1046  1047 1
 1138  1046  1048 1
 1139  1046  1061 1
 1140  1045  1046 1
 1141  1043  1044 1
 1142  1043  1045 1
 1143  1043  1059 1
 1144  1040  1041 1
 1145  1040  1042 1
 1146  1040  1043 1
 1147  1039  1040 1
 1148  1036  1037 1
 1149  1036  1038 1
 1150  1036  1039 1
 1151  1094  1095 1
 1152  1092  1093 1
 1153  1092  1094 1
 1154  1090  1091 1
 1155  1090  1092 1
 1156  1090  1096 1
 1157  1088  1089 1
 1158  1087  1088 1
 1159  1084  1085 1
 1160  1084  1086 1
 1161  1083  1084 1
 1162  1083  1087 1
 1163  1081  1082 1
 1164  1081  1083 1
 1165  1079  1080 1
 1166  1079  1081 1
 1167  1078  1079 1
 1168  1078  1088 1
 1169  1076  1077 1
 1170  1076  1078 1
 1171  1076  1092 1
 1172  1075  1076 1
 1173  1073  1074 1
 1174  1073  1075 1
 1175  1073  1090 1
 1176  1070  1071 1
 1177  1070  1072 1
 1178  1070  1073 1
 1179  1069  1070 1
 1180  1066  1067 1
 1181  1066  1068 1
 1182  1066  1069 1
@<TRIPOS>SUBSTRUCTURE
      1   RG              1 ****               0 ****  **** 
      2   RA             35 ****               0 ****  **** 
      3   RG             68 ****               0 ****  **** 
      4   RC            102 ****               0 ****  **** 
      5   RC            133 ****               0 ****  **** 
      6   RG            164 ****               0 ****  **** 
      7   RU            198 ****               0 ****  **** 
      8   RA            228 ****               0 ****  **** 
      9   RU            261 ****               0 ****  **** 
     10   RG            291 ****               0 ****  **** 
     11   RC            325 ****               0 ****  **** 
     12   RG            356 ****               0 ****  **** 
     13   RA            390 ****               0 ****  **** 
     14   RU            423 ****               0 ****  **** 
     15   RG            453 ****               0 ****  **** 
     16   RA            487 ****               0 ****  **** 
     17   RA            520 ****               0 ****  **** 
     18   RA            553 ****               0 ****  **** 
     19   RG            586 ****               0 ****  **** 
     20   RU            620 ****               0 ****  **** 
     21   RC            650 ****               0 ****  **** 
     22   RG            681 ****               0 ****  **** 
     23   RC            715 ****               0 ****  **** 
     24   RA            746 ****               0 ****  **** 
     25   RC            779 ****               0 ****  **** 
     26   RG            810 ****               0 ****  **** 
     27   RU            844 ****               0 ****  **** 
     28   RA            874 ****               0 ****  **** 
     29   RC            907 ****               0 ****  **** 
     30   RG            938 ****               0 ****  **** 
     31   RG            972 ****               0 ****  **** 
     32   RU           1006 ****               0 ****  **** 
     33   RU           1036 ****               0 ****  **** 
     34   RC           1066 ****               0 ****  **** 
